pcf
* control data
             restart          estimation
        23      4486         3         0        60
         3        60              single               point         1
   2.000000E+01  -3.000000E+00   3.000000E-01   1.000000E-02        -7
   1.000000E+01   1.000000E+01   1.000000E-03
   1.000000E-01
        -1   1.000000E-02         3         3   1.000000E-02         3
         0         0         0
* singular value decomposition
         1
  10000000    1.000000E-06
1
* parameter groups
initc                  relative              1.0000000000E-02      0.0 switch                2.0000000000E+00      parabolic             1.0000000000E-05      5.0000000000E-01      smaller              
soil                   relative              1.0000000000E-02      0.0 switch                2.0000000000E+00      parabolic             1.0000000000E-05      5.0000000000E-01      smaller              
aquf                   relative              1.0000000000E-02      0.0 switch                2.0000000000E+00      parabolic             1.0000000000E-05      5.0000000000E-01      smaller              
* parameter data
aquf_caco3            log                   factor                1.0000000000E-05      1.1000000000E-10      5.0000000000E-01      aquf                  1.0000000000E+00      0.0000000000E+00      1          
aquf_caso4            log                   factor                1.0000000000E-05      1.1000000000E-10      5.0000000000E-01      aquf                  1.0000000000E+00      0.0000000000E+00      1          
aquf_mgso4            log                   factor                1.0000000000E-05      1.1000000000E-10      5.0000000000E-01      aquf                  1.0000000000E+00      0.0000000000E+00      1          
init_ca               log                   factor                5.0000100000E+01      1.0000000000E-04      1.0000000000E+02      initc                 1.0000000000E+00      -5.0000000000E+01     1          
init_cl               log                   factor                5.0000100000E+01      1.0000000000E-04      1.0000000000E+02      initc                 1.0000000000E+00      -5.0000000000E+01     1          
init_cno3             log                   factor                5.0000100000E+01      1.0000000000E-04      1.0000000000E+02      initc                 1.0000000000E+00      -5.0000000000E+01     1          
init_co3              log                   factor                5.0000100000E+01      1.0000000000E-04      1.0000000000E+02      initc                 1.0000000000E+00      -5.0000000000E+01     1          
init_hco3             log                   factor                5.0000100000E+01      1.0000000000E-04      1.0000000000E+02      initc                 1.0000000000E+00      -5.0000000000E+01     1          
init_k                log                   factor                5.0000100000E+01      1.0000000000E-04      1.0000000000E+02      initc                 1.0000000000E+00      -5.0000000000E+01     1          
init_mg               log                   factor                5.0000100000E+01      1.0000000000E-04      1.0000000000E+02      initc                 1.0000000000E+00      -5.0000000000E+01     1          
init_na               log                   factor                5.0000100000E+01      1.0000000000E-04      1.0000000000E+02      initc                 1.0000000000E+00      -5.0000000000E+01     1          
init_p                log                   factor                5.0000100000E+01      1.0000000000E-04      1.0000000000E+02      initc                 1.0000000000E+00      -5.0000000000E+01     1          
init_so4              log                   factor                5.0000100000E+01      1.0000000000E-04      1.0000000000E+02      initc                 1.0000000000E+00      -5.0000000000E+01     1          
soil_caco_h           log                   factor                2.3740000000E+01      1.9150000000E+01      2.8330000000E+01      soil                  1.0000000000E+00      0.0000000000E+00      1          
soil_caco_l           log                   factor                1.2640000000E+01      1.1250000000E+01      1.4030000000E+01      soil                  1.0000000000E+00      0.0000000000E+00      1          
soil_caco_m           log                   factor                1.5820000000E+01      1.5080000000E+01      1.6560000000E+01      soil                  1.0000000000E+00      0.0000000000E+00      1          
soil_caco_mh          log                   factor                1.7855000000E+01      1.6560000000E+01      1.9150000000E+01      soil                  1.0000000000E+00      0.0000000000E+00      1          
soil_caco_ml          log                   factor                1.4555000000E+01      1.4030000000E+01      1.5080000000E+01      soil                  1.0000000000E+00      0.0000000000E+00      1          
soil_caso_h           log                   factor                5.8190000000E+00      3.1080000000E+00      8.5300000000E+00      soil                  1.0000000000E+00      0.0000000000E+00      1          
soil_caso_l           log                   factor                1.8650000000E-01      9.4000000000E-02      2.7900000000E-01      soil                  1.0000000000E+00      0.0000000000E+00      1          
soil_caso_m           log                   factor                9.9900000000E-01      6.7800000000E-01      1.3200000000E+00      soil                  1.0000000000E+00      0.0000000000E+00      1          
soil_caso_mh          log                   factor                2.2140000000E+00      1.3200000000E+00      3.1080000000E+00      soil                  1.0000000000E+00      0.0000000000E+00      1          
soil_caso_ml          log                   factor                4.7850000000E-01      2.7900000000E-01      6.7800000000E-01      soil                  1.0000000000E+00      0.0000000000E+00      1          
* observation groups
d009_cca             
d009_ck              
d009_cmg             
d009_cna             
d009_cso4            
d009_lca             
d009_lk              
d009_lmg             
d009_lna             
d009_lso4            
d012_cca             
d012_ccl             
d012_chco3           
d012_ck              
d012_cmg             
d012_cna             
d012_cso4            
d012_lca             
d012_lcl             
d012_lhco3           
d012_lk              
d012_lmg             
d012_lna             
d012_lso4            
d075_cca             
d075_ccl             
d075_cco             
d075_chco3           
d075_ck              
d075_cmg             
d075_cna             
d075_cso4            
d075_lca             
d075_lcl             
d075_lco             
d075_lhco3           
d075_lk              
d075_lmg             
d075_lna             
d075_lso4            
m009_lca             
m009_lk              
m009_lmg             
m009_lna             
m009_lso4            
m012_lca             
m012_lcl             
m012_lhco3           
m012_lk              
m012_lmg             
m012_lna             
m012_lso4            
m075_lca             
m075_lcl             
m075_lco             
m075_lhco3           
m075_lk              
m075_lmg             
m075_lna             
m075_lso4            
* observation data
d009_cca_19961119     5.2400000000E+01      1.0000000000E+00      d009_cca             
d009_cca_19970108     5.6100000000E+01      1.0000000000E+00      d009_cca             
d009_cca_19970130     6.9200000000E+01      1.0000000000E+00      d009_cca             
d009_cca_19970225     6.0100000000E+01      1.0000000000E+00      d009_cca             
d009_cca_19970325     4.4800000000E+01      1.0000000000E+00      d009_cca             
d009_cca_19970429     4.1900000000E+01      1.0000000000E+00      d009_cca             
d009_cca_19970514     2.4900000000E+01      1.0000000000E+00      d009_cca             
d009_cca_19970521     2.1600000000E+01      1.0000000000E+00      d009_cca             
d009_cca_19970529     2.7100000000E+01      1.0000000000E+00      d009_cca             
d009_cca_19970605     1.6900000000E+01      1.0000000000E+00      d009_cca             
d009_cca_19970611     2.1800000000E+01      1.0000000000E+00      d009_cca             
d009_cca_19970616     2.0800000000E+01      1.0000000000E+00      d009_cca             
d009_cca_19970626     1.8600000000E+01      1.0000000000E+00      d009_cca             
d009_cca_19970701     1.9200000000E+01      1.0000000000E+00      d009_cca             
d009_cca_19970715     2.0700000000E+01      1.0000000000E+00      d009_cca             
d009_cca_19970730     2.3000000000E+01      1.0000000000E+00      d009_cca             
d009_cca_19970812     2.7800000000E+01      1.0000000000E+00      d009_cca             
d009_cca_19970925     2.9100000000E+01      1.0000000000E+00      d009_cca             
d009_cca_19971022     3.5600000000E+01      1.0000000000E+00      d009_cca             
d009_cca_19971125     4.9600000000E+01      1.0000000000E+00      d009_cca             
d009_cca_19971223     5.5800000000E+01      1.0000000000E+00      d009_cca             
d009_cca_19980212     6.0300000000E+01      1.0000000000E+00      d009_cca             
d009_cca_19980316     5.7200000000E+01      1.0000000000E+00      d009_cca             
d009_cca_19980423     5.6500000000E+01      1.0000000000E+00      d009_cca             
d009_cca_19980506     3.6200000000E+01      1.0000000000E+00      d009_cca             
d009_cca_19980529     2.0900000000E+01      1.0000000000E+00      d009_cca             
d009_cca_19980602     1.8300000000E+01      1.0000000000E+00      d009_cca             
d009_cca_19980609     2.4300000000E+01      1.0000000000E+00      d009_cca             
d009_cca_19980624     1.8900000000E+01      1.0000000000E+00      d009_cca             
d009_cca_19980709     2.1500000000E+01      1.0000000000E+00      d009_cca             
d009_cca_19980722     2.8500000000E+01      1.0000000000E+00      d009_cca             
d009_cca_19980930     4.9000000000E+01      1.0000000000E+00      d009_cca             
d009_cca_19990217     6.2300000000E+01      1.0000000000E+00      d009_cca             
d009_cca_19990429     5.2400000000E+01      1.0000000000E+00      d009_cca             
d009_cca_19990819     3.1100000000E+01      1.0000000000E+00      d009_cca             
d009_cca_20000329     6.6300000000E+01      1.0000000000E+00      d009_cca             
d009_cca_20000424     4.2900000000E+01      1.0000000000E+00      d009_cca             
d009_cca_20000516     2.7100000000E+01      1.0000000000E+00      d009_cca             
d009_cca_20000531     1.7800000000E+01      1.0000000000E+00      d009_cca             
d009_cca_20000612     2.2900000000E+01      1.0000000000E+00      d009_cca             
d009_cca_20000628     3.0700000000E+01      1.0000000000E+00      d009_cca             
d009_cca_20000718     3.9300000000E+01      1.0000000000E+00      d009_cca             
d009_cca_20000822     4.5200000000E+01      1.0000000000E+00      d009_cca             
d009_cca_20000915     4.5300000000E+01      1.0000000000E+00      d009_cca             
d009_cca_20001205     5.9100000000E+01      1.0000000000E+00      d009_cca             
d009_cca_20010108     6.6500000000E+01      1.0000000000E+00      d009_cca             
d009_cca_20010312     6.6800000000E+01      1.0000000000E+00      d009_cca             
d009_cca_20010430     3.4400000000E+01      1.0000000000E+00      d009_cca             
d009_cca_20010530     1.9200000000E+01      1.0000000000E+00      d009_cca             
d009_cca_20010821     4.1000000000E+01      1.0000000000E+00      d009_cca             
d009_ck_19971223      7.6000000000E-01      1.0000000000E+00      d009_ck              
d009_ck_19980212      7.6000000000E-01      1.0000000000E+00      d009_ck              
d009_ck_19980316      7.6000000000E-01      1.0000000000E+00      d009_ck              
d009_ck_19980423      7.5000000000E-01      1.0000000000E+00      d009_ck              
d009_ck_19980506      5.7000000000E-01      1.0000000000E+00      d009_ck              
d009_ck_19980529      4.3000000000E-01      1.0000000000E+00      d009_ck              
d009_ck_19980602      4.5000000000E-01      1.0000000000E+00      d009_ck              
d009_ck_19980609      4.3000000000E-01      1.0000000000E+00      d009_ck              
d009_ck_19980624      3.6000000000E-01      1.0000000000E+00      d009_ck              
d009_ck_19980709      3.6000000000E-01      1.0000000000E+00      d009_ck              
d009_ck_19980722      5.0000000000E-01      1.0000000000E+00      d009_ck              
d009_ck_19980930      6.3000000000E-01      1.0000000000E+00      d009_ck              
d009_ck_19990217      7.0000000000E-01      1.0000000000E+00      d009_ck              
d009_ck_19990429      6.6000000000E-01      1.0000000000E+00      d009_ck              
d009_ck_19990819      4.7000000000E-01      1.0000000000E+00      d009_ck              
d009_ck_20000329      8.8000000000E-01      1.0000000000E+00      d009_ck              
d009_ck_20000424      6.2000000000E-01      1.0000000000E+00      d009_ck              
d009_ck_20000516      5.6000000000E-01      1.0000000000E+00      d009_ck              
d009_ck_20000531      5.6000000000E-01      1.0000000000E+00      d009_ck              
d009_ck_20000612      5.4000000000E-01      1.0000000000E+00      d009_ck              
d009_ck_20000628      6.0000000000E-01      1.0000000000E+00      d009_ck              
d009_ck_20000718      6.7000000000E-01      1.0000000000E+00      d009_ck              
d009_ck_20000822      7.1000000000E-01      1.0000000000E+00      d009_ck              
d009_ck_20000915      6.4000000000E-01      1.0000000000E+00      d009_ck              
d009_ck_20001205      6.1000000000E-01      1.0000000000E+00      d009_ck              
d009_ck_20010108      6.8000000000E-01      1.0000000000E+00      d009_ck              
d009_ck_20010312      6.8000000000E-01      1.0000000000E+00      d009_ck              
d009_ck_20010430      5.2000000000E-01      1.0000000000E+00      d009_ck              
d009_ck_20010530      3.9000000000E-01      1.0000000000E+00      d009_ck              
d009_ck_20010821      5.4000000000E-01      1.0000000000E+00      d009_ck              
d009_cmg_19961119     2.8500000000E+00      1.0000000000E+00      d009_cmg             
d009_cmg_19970108     3.0200000000E+00      1.0000000000E+00      d009_cmg             
d009_cmg_19970130     3.5200000000E+00      1.0000000000E+00      d009_cmg             
d009_cmg_19970225     3.2000000000E+00      1.0000000000E+00      d009_cmg             
d009_cmg_19970325     2.7400000000E+00      1.0000000000E+00      d009_cmg             
d009_cmg_19970429     2.5600000000E+00      1.0000000000E+00      d009_cmg             
d009_cmg_19970514     1.6300000000E+00      1.0000000000E+00      d009_cmg             
d009_cmg_19970521     1.4300000000E+00      1.0000000000E+00      d009_cmg             
d009_cmg_19970529     1.7100000000E+00      1.0000000000E+00      d009_cmg             
d009_cmg_19970605     1.1500000000E+00      1.0000000000E+00      d009_cmg             
d009_cmg_19970611     1.4500000000E+00      1.0000000000E+00      d009_cmg             
d009_cmg_19970616     1.4000000000E+00      1.0000000000E+00      d009_cmg             
d009_cmg_19970626     1.2500000000E+00      1.0000000000E+00      d009_cmg             
d009_cmg_19970701     1.2900000000E+00      1.0000000000E+00      d009_cmg             
d009_cmg_19970715     1.3700000000E+00      1.0000000000E+00      d009_cmg             
d009_cmg_19970730     1.5800000000E+00      1.0000000000E+00      d009_cmg             
d009_cmg_19970812     1.9100000000E+00      1.0000000000E+00      d009_cmg             
d009_cmg_19970925     1.9700000000E+00      1.0000000000E+00      d009_cmg             
d009_cmg_19971022     2.1200000000E+00      1.0000000000E+00      d009_cmg             
d009_cmg_19971125     2.7000000000E+00      1.0000000000E+00      d009_cmg             
d009_cmg_19971223     3.1400000000E+00      1.0000000000E+00      d009_cmg             
d009_cmg_19980212     3.2800000000E+00      1.0000000000E+00      d009_cmg             
d009_cmg_19980316     3.1800000000E+00      1.0000000000E+00      d009_cmg             
d009_cmg_19980423     3.3000000000E+00      1.0000000000E+00      d009_cmg             
d009_cmg_19980506     2.1200000000E+00      1.0000000000E+00      d009_cmg             
d009_cmg_19980529     1.2800000000E+00      1.0000000000E+00      d009_cmg             
d009_cmg_19980602     1.1300000000E+00      1.0000000000E+00      d009_cmg             
d009_cmg_19980609     1.4700000000E+00      1.0000000000E+00      d009_cmg             
d009_cmg_19980624     1.2000000000E+00      1.0000000000E+00      d009_cmg             
d009_cmg_19980709     1.3600000000E+00      1.0000000000E+00      d009_cmg             
d009_cmg_19980722     1.7700000000E+00      1.0000000000E+00      d009_cmg             
d009_cmg_19980930     2.7600000000E+00      1.0000000000E+00      d009_cmg             
d009_cmg_19990217     3.3400000000E+00      1.0000000000E+00      d009_cmg             
d009_cmg_19990429     3.1400000000E+00      1.0000000000E+00      d009_cmg             
d009_cmg_19990819     2.0500000000E+00      1.0000000000E+00      d009_cmg             
d009_cmg_20000329     3.8100000000E+00      1.0000000000E+00      d009_cmg             
d009_cmg_20000424     2.6500000000E+00      1.0000000000E+00      d009_cmg             
d009_cmg_20000516     1.7800000000E+00      1.0000000000E+00      d009_cmg             
d009_cmg_20000531     1.2400000000E+00      1.0000000000E+00      d009_cmg             
d009_cmg_20000612     1.5700000000E+00      1.0000000000E+00      d009_cmg             
d009_cmg_20000628     2.0100000000E+00      1.0000000000E+00      d009_cmg             
d009_cmg_20000718     2.4000000000E+00      1.0000000000E+00      d009_cmg             
d009_cmg_20000822     3.0700000000E+00      1.0000000000E+00      d009_cmg             
d009_cmg_20000915     2.7300000000E+00      1.0000000000E+00      d009_cmg             
d009_cmg_20001205     3.2900000000E+00      1.0000000000E+00      d009_cmg             
d009_cmg_20010108     3.6000000000E+00      1.0000000000E+00      d009_cmg             
d009_cmg_20010312     3.6200000000E+00      1.0000000000E+00      d009_cmg             
d009_cmg_20010430     2.1600000000E+00      1.0000000000E+00      d009_cmg             
d009_cmg_20010530     1.3500000000E+00      1.0000000000E+00      d009_cmg             
d009_cmg_20010821     2.6000000000E+00      1.0000000000E+00      d009_cmg             
d009_cna_19961119     2.2600000000E+00      1.0000000000E+00      d009_cna             
d009_cna_19970108     2.3700000000E+00      1.0000000000E+00      d009_cna             
d009_cna_19970130     2.8600000000E+00      1.0000000000E+00      d009_cna             
d009_cna_19970225     2.4700000000E+00      1.0000000000E+00      d009_cna             
d009_cna_19970325     1.9300000000E+00      1.0000000000E+00      d009_cna             
d009_cna_19970429     1.7500000000E+00      1.0000000000E+00      d009_cna             
d009_cna_19970514     1.2400000000E+00      1.0000000000E+00      d009_cna             
d009_cna_19970521     1.1200000000E+00      1.0000000000E+00      d009_cna             
d009_cna_19970529     1.4400000000E+00      1.0000000000E+00      d009_cna             
d009_cna_19970605     9.3000000000E-01      1.0000000000E+00      d009_cna             
d009_cna_19970611     1.0600000000E+00      1.0000000000E+00      d009_cna             
d009_cna_19970616     1.0500000000E+00      1.0000000000E+00      d009_cna             
d009_cna_19970626     8.6000000000E-01      1.0000000000E+00      d009_cna             
d009_cna_19970701     9.0000000000E-01      1.0000000000E+00      d009_cna             
d009_cna_19970715     9.7000000000E-01      1.0000000000E+00      d009_cna             
d009_cna_19970730     1.0700000000E+00      1.0000000000E+00      d009_cna             
d009_cna_19970812     1.3100000000E+00      1.0000000000E+00      d009_cna             
d009_cna_19970925     1.3300000000E+00      1.0000000000E+00      d009_cna             
d009_cna_19971022     1.4000000000E+00      1.0000000000E+00      d009_cna             
d009_cna_19971125     1.9500000000E+00      1.0000000000E+00      d009_cna             
d009_cna_19971223     2.3700000000E+00      1.0000000000E+00      d009_cna             
d009_cna_19980212     2.5600000000E+00      1.0000000000E+00      d009_cna             
d009_cna_19980316     2.2400000000E+00      1.0000000000E+00      d009_cna             
d009_cna_19980423     2.7000000000E+00      1.0000000000E+00      d009_cna             
d009_cna_19980506     1.7300000000E+00      1.0000000000E+00      d009_cna             
d009_cna_19980529     1.0600000000E+00      1.0000000000E+00      d009_cna             
d009_cna_19980602     8.6000000000E-01      1.0000000000E+00      d009_cna             
d009_cna_19980609     1.1400000000E+00      1.0000000000E+00      d009_cna             
d009_cna_19980624     8.7000000000E-01      1.0000000000E+00      d009_cna             
d009_cna_19980709     1.0300000000E+00      1.0000000000E+00      d009_cna             
d009_cna_19980722     1.2700000000E+00      1.0000000000E+00      d009_cna             
d009_cna_19980930     2.2200000000E+00      1.0000000000E+00      d009_cna             
d009_cna_19990217     2.7100000000E+00      1.0000000000E+00      d009_cna             
d009_cna_19990429     2.4100000000E+00      1.0000000000E+00      d009_cna             
d009_cna_19990819     1.4200000000E+00      1.0000000000E+00      d009_cna             
d009_cna_20000329     2.6700000000E+00      1.0000000000E+00      d009_cna             
d009_cna_20000424     1.7500000000E+00      1.0000000000E+00      d009_cna             
d009_cna_20000516     1.2000000000E+00      1.0000000000E+00      d009_cna             
d009_cna_20000531     7.6000000000E-01      1.0000000000E+00      d009_cna             
d009_cna_20000612     9.6000000000E-01      1.0000000000E+00      d009_cna             
d009_cna_20000628     1.2500000000E+00      1.0000000000E+00      d009_cna             
d009_cna_20000718     1.6000000000E+00      1.0000000000E+00      d009_cna             
d009_cna_20000822     1.9000000000E+00      1.0000000000E+00      d009_cna             
d009_cna_20000915     1.7800000000E+00      1.0000000000E+00      d009_cna             
d009_cna_20001205     2.5300000000E+00      1.0000000000E+00      d009_cna             
d009_cna_20010108     2.8100000000E+00      1.0000000000E+00      d009_cna             
d009_cna_20010312     2.8100000000E+00      1.0000000000E+00      d009_cna             
d009_cna_20010430     1.5300000000E+00      1.0000000000E+00      d009_cna             
d009_cna_20010530     9.1000000000E-01      1.0000000000E+00      d009_cna             
d009_cna_20010821     1.7500000000E+00      1.0000000000E+00      d009_cna             
d009_cso4_19961119    1.1600000000E+02      1.0000000000E+00      d009_cso4            
d009_cso4_19970108    8.3000000000E+01      1.0000000000E+00      d009_cso4            
d009_cso4_19970130    1.5500000000E+02      1.0000000000E+00      d009_cso4            
d009_cso4_19970225    1.4100000000E+02      1.0000000000E+00      d009_cso4            
d009_cso4_19970325    1.1600000000E+02      1.0000000000E+00      d009_cso4            
d009_cso4_19970429    9.2000000000E+01      1.0000000000E+00      d009_cso4            
d009_cso4_19970514    4.6000000000E+01      1.0000000000E+00      d009_cso4            
d009_cso4_19970521    4.0000000000E+01      1.0000000000E+00      d009_cso4            
d009_cso4_19970529    5.2000000000E+01      1.0000000000E+00      d009_cso4            
d009_cso4_19970605    2.8000000000E+01      1.0000000000E+00      d009_cso4            
d009_cso4_19970611    3.6000000000E+01      1.0000000000E+00      d009_cso4            
d009_cso4_19970616    3.2000000000E+01      1.0000000000E+00      d009_cso4            
d009_cso4_19970626    3.3000000000E+01      1.0000000000E+00      d009_cso4            
d009_cso4_19970701    3.1000000000E+01      1.0000000000E+00      d009_cso4            
d009_cso4_19970715    3.4000000000E+01      1.0000000000E+00      d009_cso4            
d009_cso4_19970730    4.0000000000E+01      1.0000000000E+00      d009_cso4            
d009_cso4_19970812    5.1000000000E+01      1.0000000000E+00      d009_cso4            
d009_cso4_19970925    5.6000000000E+01      1.0000000000E+00      d009_cso4            
d009_cso4_19971022    7.5000000000E+01      1.0000000000E+00      d009_cso4            
d009_cso4_19971125    1.1000000000E+02      1.0000000000E+00      d009_cso4            
d009_cso4_19971223    1.3000000000E+02      1.0000000000E+00      d009_cso4            
d009_cso4_19980212    1.5000000000E+02      1.0000000000E+00      d009_cso4            
d009_cso4_19980316    2.8600000000E+02      1.0000000000E+00      d009_cso4            
d009_cso4_19980423    1.3500000000E+02      1.0000000000E+00      d009_cso4            
d009_cso4_19980506    7.5000000000E+01      1.0000000000E+00      d009_cso4            
d009_cso4_19980529    3.6000000000E+01      1.0000000000E+00      d009_cso4            
d009_cso4_19980602    3.1000000000E+01      1.0000000000E+00      d009_cso4            
d009_cso4_19980609    4.3000000000E+01      1.0000000000E+00      d009_cso4            
d009_cso4_19980624    3.2000000000E+01      1.0000000000E+00      d009_cso4            
d009_cso4_19980709    3.7000000000E+01      1.0000000000E+00      d009_cso4            
d009_cso4_19980722    5.9000000000E+01      1.0000000000E+00      d009_cso4            
d009_cso4_19980930    1.0800000000E+02      1.0000000000E+00      d009_cso4            
d009_cso4_19990217    1.0900000000E+02      1.0000000000E+00      d009_cso4            
d009_cso4_19990429    1.0700000000E+02      1.0000000000E+00      d009_cso4            
d009_cso4_19990819    6.9000000000E+01      1.0000000000E+00      d009_cso4            
d009_cso4_20000329    1.4100000000E+02      1.0000000000E+00      d009_cso4            
d009_cso4_20000424    1.0300000000E+02      1.0000000000E+00      d009_cso4            
d009_cso4_20000516    6.0000000000E+01      1.0000000000E+00      d009_cso4            
d009_cso4_20000531    2.7000000000E+01      1.0000000000E+00      d009_cso4            
d009_cso4_20000612    3.8000000000E+01      1.0000000000E+00      d009_cso4            
d009_cso4_20000628    5.4000000000E+01      1.0000000000E+00      d009_cso4            
d009_cso4_20000718    7.4000000000E+01      1.0000000000E+00      d009_cso4            
d009_cso4_20000915    9.5000000000E+01      1.0000000000E+00      d009_cso4            
d009_cso4_20001205    1.3000000000E+02      1.0000000000E+00      d009_cso4            
d009_cso4_20010108    1.5100000000E+02      1.0000000000E+00      d009_cso4            
d009_cso4_20010312    1.6000000000E+02      1.0000000000E+00      d009_cso4            
d009_cso4_20010430    7.4000000000E+01      1.0000000000E+00      d009_cso4            
d009_cso4_20010530    3.5000000000E+01      1.0000000000E+00      d009_cso4            
d009_cso4_20010821    8.7000000000E+01      1.0000000000E+00      d009_cso4            
d009_lca_19961119     5.5126149500E+03      1.0000000000E+00      d009_lca             
d009_lca_19970108     6.4508751300E+03      1.0000000000E+00      d009_lca             
d009_lca_19970130     1.4390733700E+03      1.0000000000E+00      d009_lca             
d009_lca_19970225     2.6467010700E+03      1.0000000000E+00      d009_lca             
d009_lca_19970325     4.9322881800E+03      1.0000000000E+00      d009_lca             
d009_lca_19970429     9.8410892800E+03      1.0000000000E+00      d009_lca             
d009_lca_19970514     2.6378200200E+04      1.0000000000E+00      d009_lca             
d009_lca_19970521     2.7162815600E+04      1.0000000000E+00      d009_lca             
d009_lca_19970529     1.5779897000E+04      1.0000000000E+00      d009_lca             
d009_lca_19970605     3.6509452800E+04      1.0000000000E+00      d009_lca             
d009_lca_19970611     2.4054201900E+04      1.0000000000E+00      d009_lca             
d009_lca_19970616     2.9515438800E+04      1.0000000000E+00      d009_lca             
d009_lca_19970626     2.7576775500E+04      1.0000000000E+00      d009_lca             
d009_lca_19970701     2.7479891300E+04      1.0000000000E+00      d009_lca             
d009_lca_19970715     1.7978630800E+04      1.0000000000E+00      d009_lca             
d009_lca_19970730     1.8231851000E+04      1.0000000000E+00      d009_lca             
d009_lca_19970812     1.5779407700E+04      1.0000000000E+00      d009_lca             
d009_lca_19970925     1.4381436700E+04      1.0000000000E+00      d009_lca             
d009_lca_19971022     1.0016263800E+04      1.0000000000E+00      d009_lca             
d009_lca_19971125     5.3393976900E+03      1.0000000000E+00      d009_lca             
d009_lca_19980316     3.4985972700E+03      1.0000000000E+00      d009_lca             
d009_lca_19980423     7.1880271300E+03      1.0000000000E+00      d009_lca             
d009_lca_19980506     1.4879069400E+04      1.0000000000E+00      d009_lca             
d009_lca_19980529     2.2958871800E+04      1.0000000000E+00      d009_lca             
d009_lca_19980602     2.7803572700E+04      1.0000000000E+00      d009_lca             
d009_lca_19980609     1.1474175800E+04      1.0000000000E+00      d009_lca             
d009_lca_19980624     2.2426497800E+04      1.0000000000E+00      d009_lca             
d009_lca_19980709     1.7095418500E+04      1.0000000000E+00      d009_lca             