 Head values for selected MODFLOW cells
   2615.32   2257.27   2172.56   2103.93   2240.43   2173.52   2132.82   2133.21   2059.40   2056.30   1858.02
   2615.32   2257.28   2172.56   2103.94   2240.43   2173.52   2132.81   2133.20   2059.40   2056.30   1858.03
   2615.32   2257.28   2172.56   2103.94   2240.44   2173.52   2132.80   2133.19   2059.41   2056.30   1858.03
   2615.32   2257.28   2172.56   2103.95   2240.44   2173.52   2132.79   2133.17   2059.41   2056.31   1858.03
   2615.32   2257.28   2172.56   2103.95   2240.44   2173.52   2132.79   2133.16   2059.42   2056.31   1858.04
   2615.32   2257.28   2172.56   2103.96   2240.44   2173.52   2132.78   2133.15   2059.43   2056.32   1858.04
   2615.32   2257.28   2172.56   2103.96   2240.45   2173.52   2132.77   2133.14   2059.43   2056.32   1858.05
   2615.32   2257.29   2172.56   2103.97   2240.45   2173.52   2132.76   2133.13   2059.44   2056.32   1858.05
   2615.32   2257.29   2172.56   2103.97   2240.45   2173.52   2132.76   2133.12   2059.44   2056.33   1858.06
   2615.32   2257.29   2172.56   2103.97   2240.45   2173.52   2132.75   2133.11   2059.45   2056.33   1858.06
   2615.32   2257.29   2172.56   2103.98   2240.46   2173.52   2132.74   2133.10   2059.45   2056.34   1858.07
   2615.32   2257.29   2172.56   2103.98   2240.46   2173.52   2132.73   2133.09   2059.46   2056.34   1858.08
   2615.32   2257.30   2172.56   2103.99   2240.46   2173.52   2132.73   2133.08   2059.47   2056.34   1858.08
   2615.32   2257.30   2172.56   2103.99   2240.46   2173.52   2132.72   2133.07   2059.47   2056.35   1858.09
   2615.31   2257.30   2172.56   2104.00   2240.47   2173.52   2132.71   2133.06   2059.48   2056.35   1858.10
   2615.31   2257.30   2172.56   2104.00   2240.47   2173.52   2132.71   2133.05   2059.48   2056.35   1858.10
   2615.31   2257.30   2172.56   2104.00   2240.47   2173.52   2132.70   2133.04   2059.49   2056.36   1858.11
   2615.31   2257.30   2172.56   2104.01   2240.47   2173.52   2132.69   2133.03   2059.49   2056.36   1858.12
   2615.31   2257.31   2172.56   2104.01   2240.48   2173.52   2132.68   2133.02   2059.50   2056.37   1858.13
   2615.31   2257.31   2172.56   2104.02   2240.48   2173.52   2132.68   2133.01   2059.51   2056.37   1858.14
   2615.31   2257.31   2172.56   2104.02   2240.48   2173.52   2132.67   2133.00   2059.51   2056.37   1858.15
   2615.31   2257.31   2172.56   2104.03   2240.48   2173.52   2132.66   2132.99   2059.52   2056.38   1858.16
   2615.31   2257.31   2172.56   2104.03   2240.49   2173.52   2132.65   2132.98   2059.52   2056.38   1858.17
   2615.31   2257.32   2172.56   2104.04   2240.49   2173.52   2132.65   2132.96   2059.53   2056.38   1858.18
   2615.31   2257.32   2172.56   2104.04   2240.49   2173.52   2132.64   2132.95   2059.53   2056.39   1858.19
   2615.31   2257.32   2172.56   2104.04   2240.49   2173.52   2132.63   2132.94   2059.54   2056.39   1858.20
   2615.31   2257.32   2172.56   2104.05   2240.50   2173.52   2132.62   2132.93   2059.55   2056.40   1858.21
   2615.31   2257.32   2172.56   2104.05   2240.50   2173.52   2132.62   2132.92   2059.55   2056.40   1858.22
   2615.31   2257.32   2172.56   2104.06   2240.50   2173.52   2132.61   2132.91   2059.56   2056.40   1858.23
   2615.31   2257.33   2172.56   2104.06   2240.50   2173.52   2132.60   2132.90   2059.56   2056.41   1858.24
   2615.31   2257.33   2172.56   2104.07   2240.50   2173.52   2132.59   2132.89   2059.57   2056.41   1858.25
   2615.31   2257.33   2172.56   2104.07   2240.51   2173.52   2132.59   2132.88   2059.57   2056.41   1858.27
   2615.31   2257.33   2172.56   2104.08   2240.51   2173.52   2132.58   2132.87   2059.58   2056.42   1858.28
   2615.31   2257.33   2172.56   2104.08   2240.51   2173.52   2132.57   2132.86   2059.58   2056.42   1858.29
   2615.31   2257.34   2172.56   2104.08   2240.51   2173.52   2132.56   2132.85   2059.59   2056.42   1858.30
   2615.31   2257.34   2172.56   2104.09   2240.52   2173.52   2132.56   2132.84   2059.59   2056.43   1858.32
   2615.31   2257.34   2172.56   2104.09   2240.52   2173.52   2132.55   2132.83   2059.60   2056.43   1858.33
   2615.31   2257.34   2172.56   2104.10   2240.52   2173.52   2132.54   2132.82   2059.61   2056.44   1858.34
   2615.31   2257.34   2172.56   2104.10   2240.52   2173.52   2132.53   2132.81   2059.61   2056.44   1858.35
   2615.31   2257.34   2172.56   2104.11   2240.53   2173.52   2132.53   2132.80   2059.62   2056.44   1858.36
   2615.31   2257.35   2172.56   2104.11   2240.53   2173.52   2132.52   2132.79   2059.62   2056.45   1858.38
   2615.31   2257.35   2172.56   2104.12   2240.53   2173.52   2132.51   2132.78   2059.63   2056.45   1858.39
   2615.31   2257.35   2172.56   2104.12   2240.53   2173.52   2132.50   2132.77   2059.63   2056.45   1858.40
   2615.31   2257.35   2172.56   2104.12   2240.54   2173.52   2132.50   2132.76   2059.64   2056.46   1858.42
   2615.31   2257.35   2172.56   2104.13   2240.54   2173.52   2132.49   2132.75   2059.65   2056.46   1858.43
   2615.31   2257.36   2172.56   2104.13   2240.54   2173.52   2132.48   2132.73   2059.65   2056.46   1858.44
   2615.31   2257.36   2172.56   2104.14   2240.54   2173.52   2132.47   2132.72   2059.66   2056.47   1858.45
   2615.31   2257.36   2172.56   2104.14   2240.55   2173.52   2132.46   2132.71   2059.66   2056.47   1858.47
   2615.31   2257.36   2172.56   2104.15   2240.55   2173.52   2132.46   2132.70   2059.67   2056.48   1858.48
   2615.31   2257.36   2172.56   2104.15   2240.55   2173.52   2132.45   2132.69   2059.67   2056.48   1858.49
   2615.31   2257.37   2172.56   2104.16   2240.56   2173.52   2132.44   2132.68   2059.68   2056.48   1858.51
   2615.31   2257.37   2172.56   2104.16   2240.56   2173.52   2132.43   2132.67   2059.68   2056.49   1858.52
   2615.30   2257.37   2172.56   2104.17   2240.56   2173.52   2132.42   2132.66   2059.69   2056.49   1858.53
   2615.30   2257.37   2172.56   2104.17   2240.56   2173.52   2132.42   2132.65   2059.70   2056.49   1858.55
   2615.30   2257.37   2172.56   2104.18   2240.57   2173.52   2132.41   2132.64   2059.70   2056.50   1858.56
   2615.30   2257.38   2172.56   2104.18   2240.57   2173.52   2132.40   2132.63   2059.71   2056.50   1858.57
   2615.30   2257.38   2172.56   2104.19   2240.57   2173.52   2132.39   2132.61   2059.71   2056.50   1858.59
   2615.30   2257.38   2172.56   2104.19   2240.57   2173.52   2132.38   2132.60   2059.72   2056.51   1858.60
   2615.30   2257.38   2172.56   2104.20   2240.58   2173.52   2132.38   2132.59   2059.72   2056.51   1858.61
   2615.30   2257.38   2172.56   2104.20   2240.58   2173.52   2132.37   2132.58   2059.73   2056.52   1858.63
   2615.30   2257.39   2172.56   2104.21   2240.58   2173.52   2132.36   2132.57   2059.74   2056.52   1858.64
   2615.30   2257.39   2172.56   2104.21   2240.58   2173.52   2132.35   2132.56   2059.74   2056.52   1858.66
   2615.30   2257.39   2172.56   2104.22   2240.59   2173.52   2132.35   2132.55   2059.75   2056.53   1858.67
   2615.30   2257.39   2172.56   2104.22   2240.59   2173.52   2132.34   2132.54   2059.75   2056.53   1858.68
   2615.30   2257.39   2172.56   2104.22   2240.59   2173.52   2132.33   2132.53   2059.76   2056.53   1858.72
   2615.30   2257.40   2172.56   2104.23   2240.59   2173.52   2132.32   2132.52   2059.76   2056.54   1858.76
   2615.30   2257.40   2172.56   2104.23   2240.60   2173.52   2132.32   2132.51   2059.77   2056.54   1858.78
   2615.30   2257.40   2172.56   2104.24   2240.60   2173.52   2132.31   2132.50   2059.77   2056.54   1858.80
   2615.30   2257.40   2172.56   2104.24   2240.60   2173.52   2132.30   2132.49   2059.78   2056.55   1858.86
   2615.30   2257.40   2172.56   2104.25   2240.60   2173.52   2132.29   2132.48   2059.78   2056.55   1858.96
   2615.30   2257.41   2177.21   2104.25   2240.61   2173.52   2132.29   2132.47   2059.79   2056.55   1859.04
   2615.30   2257.41   2177.22   2104.26   2240.61   2173.52   2132.28   2132.46   2059.79   2056.56   1859.24
   2615.31   2257.42   2177.23   2104.26   2240.61   2173.52   2132.27   2132.45   2059.80   2056.56   1859.43
   2615.33   2257.44   2177.24   2104.26   2240.61   2173.52   2132.26   2132.44   2059.80   2056.56   1859.62
   2615.35   2257.46   2177.25   2104.27   2240.62   2173.52   2132.26   2132.43   2059.81   2056.56   1859.73
   2615.39   2257.50   2177.25   2104.27   2240.62   2173.52   2132.25   2132.42   2059.81   2056.57   1859.95
   2615.44   2257.54   2177.26   2104.28   2240.62   2173.52   2132.24   2132.41   2059.82   2056.57   1860.15
   2615.49   2257.60   2177.27   2104.28   2240.62   2173.52   2132.24   2132.40   2059.82   2056.57   1860.36
   2615.55   2257.66   2177.28   2104.29   2240.63   2173.52   2132.23   2132.39   2059.83   2056.58   1860.56
   2615.61   2257.72   2177.29   2104.29   2240.63   2173.52   2132.22   2132.38   2059.83   2056.58   1860.77
   2615.67   2257.77   2177.30   2104.30   2240.63   2173.52   2132.21   2132.37   2059.84   2056.58   1860.97
   2615.72   2257.81   2177.31   2104.30   2240.63   2173.52   2132.21   2132.36   2059.84   2056.59   1861.17
   2615.76   2257.85   2177.32   2104.30   2240.64   2173.52   2132.20   2132.35   2059.85   2056.59   1861.38
   2615.79   2257.89   2177.32   2104.31   2240.64   2173.52   2132.19   2132.34   2059.85   2056.59   1861.58
   2615.82   2257.91   2177.33   2104.31   2240.64   2173.52   2132.19   2132.33   2059.86   2056.60   1861.78
   2615.84   2257.94   2177.34   2104.32   2240.64   2173.52   2132.18   2132.32   2059.86   2056.60   1861.99
   2615.86   2257.95   2177.35   2104.32   2240.65   2173.52   2132.17   2132.31   2059.87   2056.60   1862.19
   2615.87   2257.97   2177.36   2104.33   2240.65   2173.52   2132.16   2132.30   2059.87   2056.61   1862.40
   2615.88   2257.98   2177.37   2104.33   2240.65   2173.52   2132.16   2132.29   2059.88   2056.61   1862.60
   2615.89   2258.00   2177.38   2104.33   2240.65   2173.52   2132.15   2132.28   2059.88   2056.61   1862.80
   2615.90   2258.01   2177.39   2104.34   2240.66   2173.52   2132.14   2132.27   2059.89   2056.61   1863.01
   2615.91   2258.01   2177.40   2104.34   2240.66   2173.52   2132.14   2132.26   2059.89   2056.62   1863.21
   2615.92   2258.02   2177.40   2104.35   2240.66   2173.52   2132.13   2132.25   2059.90   2056.62   1863.42
   2615.93   2258.03   2177.41   2104.35   2240.66   2173.52   2132.12   2132.24   2059.90   2056.62   1863.61
   2615.95   2258.05   2177.42   2104.36   2240.67   2173.52   2132.11   2132.23   2059.90   2056.63   1863.66
   2615.98   2258.09   2177.42   2104.36   2240.68   2173.52   2132.11   2132.22   2059.91   2056.63   1863.72
   2616.04   2258.14   2177.43   2104.37   2240.70   2173.52   2132.10   2132.21   2059.91   2056.63   1863.78
   2616.10   2258.20   2177.44   2104.37   2240.71   2173.52   2132.09   2132.20   2059.92   2056.64   1863.83
   2616.16   2258.26   2177.45   2104.37   2240.73   2173.52   2132.08   2132.19   2059.92   2056.64   1863.89
   2616.22   2258.31   2177.45   2104.38   2240.74   2173.52   2132.08   2132.19   2059.93   2056.64   1863.94
   2616.27   2258.36   2177.46   2104.38   2240.76   2173.52   2132.07   2132.18   2059.93   2056.64   1864.00
   2616.32   2258.41   2177.47   2104.39   2240.77   2173.52   2132.06   2132.17   2059.94   2056.65   1864.06
   2616.35   2258.45   2177.48   2104.39   2240.78   2173.52   2132.06   2132.16   2059.94   2056.65   1864.11
   2616.39   2258.48   2177.48   2104.40   2240.79   2173.52   2132.05   2132.15   2059.95   2056.65   1864.17
   2616.41   2258.50   2177.49   2104.40   2240.79   2173.52   2132.04   2132.14   2059.95   2056.66   1864.22
   2616.43   2258.52   2177.50   2104.41   2240.80   2173.52   2132.04   2132.13   2059.96   2056.66   1864.28
   2616.45   2258.54   2177.51   2104.41   2240.81   2173.52   2132.03   2132.12   2059.96   2056.66   1864.33
   2616.47   2258.56   2177.52   2104.41   2240.81   2173.52   2132.02   2132.11   2059.97   2056.66   1864.39
   2616.48   2258.57   2177.53   2104.42   2240.82   2173.52   2132.01   2132.10   2059.97   2056.67   1864.44
   2616.49   2258.58   2177.53   2104.42   2240.82   2173.52   2132.01   2132.09   2059.98   2056.67   1864.50
   2616.50   2258.59   2177.54   2104.43   2240.82   2173.52   2132.00   2132.08   2059.98   2056.67   1864.55
   2616.50   2258.60   2177.55   2104.43   2240.83   2173.52   2131.99   2132.07   2059.98   2056.68   1864.61
   2616.51   2258.60   2177.56   2104.44   2240.83   2173.52   2131.99   2132.06   2059.99   2056.68   1864.66
   2616.51   2258.61   2177.57   2104.44   2240.83   2173.52   2131.98   2132.05   2059.99   2056.68   1864.72
   2616.52   2258.62   2177.57   2104.44   2240.84   2173.52   2131.97   2132.04   2060.00   2056.68   1864.77
   2616.52   2258.62   2177.58   2104.45   2240.84   2173.52   2131.96   2132.03   2060.00   2056.69   1864.83
   2616.53   2258.63   2177.60   2104.45   2240.85   2173.52   2131.96   2132.02   2060.01   2056.69   1865.06
   2616.55   2258.65   2177.62   2104.46   2240.85   2173.52   2131.95   2132.01   2060.01   2056.69   1865.32
   2616.59   2258.69   2177.64   2104.46   2240.86   2173.52   2131.94   2132.00   2060.02   2056.70   1865.56
   2616.63   2258.72   2177.65   2104.47   2240.86   2173.52   2131.94   2131.99   2060.02   2056.70   1865.82
   2616.67   2258.76   2177.67   2104.47   2240.87   2173.52   2131.93   2131.98   2060.02   2056.70   1866.08
   2616.71   2258.80   2177.68   2104.48   2240.88   2173.52   2131.92   2131.98   2060.03   2056.70   1866.27
   2616.74   2258.84   2177.69   2104.48   2240.88   2173.52   2131.91   2131.97   2060.03   2056.71   1866.37
   2616.78   2258.87   2177.69   2104.48   2240.89   2173.52   2131.91   2131.96   2060.04   2056.71   1866.45
   2616.80   2258.89   2177.70   2104.49   2240.89   2173.52   2131.90   2131.95   2060.04   2056.71   1866.49
   2616.83   2258.92   2177.70   2104.49   2240.90   2173.52   2131.89   2131.94   2060.05   2056.71   1866.53
   2616.85   2258.94   2177.71   2104.50   2240.90   2173.52   2131.89   2131.93   2060.05   2056.72   1866.55
   2616.86   2258.95   2177.71   2104.50   2240.90   2173.52   2131.88   2131.92   2060.06   2056.72   1866.66
   2616.88   2258.97   2177.72   2104.51   2240.91   2173.52   2131.87   2131.91   2060.06   2056.72   1866.81
   2616.89   2258.99   2177.75   2104.51   2240.92   2173.52   2131.87   2131.90   2060.06   2056.73   1867.07
   2616.92   2259.01   2177.77   2104.51   2240.93   2173.52   2131.86   2131.89   2060.07   2056.73   1867.33
   2616.96   2259.05   2177.79   2104.52   2240.95   2173.52   2131.85   2131.88   2060.07   2056.73   1867.59
   2617.00   2259.09   2177.81   2104.52   2240.98   2173.52   2131.84   2131.87   2060.08   2056.73   1867.84
   2617.04   2259.12   2177.83   2104.53   2241.00   2173.52   2131.84   2131.86   2060.08   2056.74   1868.10
   2617.07   2259.16   2177.84   2104.53   2241.01   2173.52   2131.83   2131.85   2060.09   2056.74   1868.34
   2617.10   2259.18   2177.85   2104.54   2241.03   2173.52   2131.82   2131.84   2060.09   2056.74   1868.48
   2617.12   2259.21   2177.85   2104.54   2241.04   2173.52   2131.82   2131.84   2060.10   2056.74   1868.58
   2617.14   2259.23   2177.86   2104.55   2241.05   2173.52   2131.81   2131.83   2060.10   2056.75   1868.70
   2617.16   2259.24   2177.88   2104.55   2241.06   2173.52   2131.80   2131.82   2060.10   2056.75   1868.95
   2617.17   2259.26   2177.88   2104.55   2241.07   2173.52   2131.80   2131.81   2060.11   2056.75   1869.11
   2617.18   2259.27   2177.88   2104.56   2241.08   2173.52   2131.79   2131.80   2060.11   2056.75   1869.23
   2617.19   2259.28   2177.89   2104.56   2241.09   2173.52   2131.78   2131.79   2060.12   2056.76   1869.37
   2617.20   2259.29   2177.89   2104.57   2241.09   2173.52   2131.77   2131.78   2060.12   2056.76   1869.40
   2617.21   2259.29   2177.89   2104.57   2241.10   2173.52   2131.77   2131.77   2060.13   2056.76   1869.45
   2617.22   2259.30   2177.91   2104.58   2241.10   2173.52   2131.76   2131.76   2060.13   2056.77   1869.58
   2617.24   2259.32   2177.93   2104.58   2241.11   2173.52   2131.75   2131.75   2060.13   2056.77   1869.80
   2617.26   2259.35   2177.94   2104.59   2241.11   2173.52   2131.75   2131.74   2060.14   2056.77   1870.44
   2617.28   2259.37   2177.96   2104.59   2241.11   2173.52   2131.74   2131.73   2060.14   2056.77   1871.42
   2617.31   2259.39   2177.98   2104.59   2241.12   2173.52   2131.73   2131.72   2060.15   2056.78   1871.18
   2617.33   2259.41   2177.98   2104.60   2241.12   2173.52   2131.73   2131.71   2060.15   2056.78   1870.24
   2617.34   2259.43   2177.99   2104.60   2241.12   2173.52   2131.72   2131.71   2060.15   2056.78   1871.08
   2617.36   2259.44   2177.99   2104.61   2241.13   2173.52   2131.71   2131.70   2060.16   2056.78   1871.12
   2617.37   2259.46   2178.00   2104.61   2241.13   2173.52   2131.71   2131.69   2060.16   2056.79   1870.81
   2617.38   2259.47   2178.00   2104.62   2241.13   2173.52   2131.70   2131.68   2060.17   2056.79   1870.90
   2617.39   2259.47   2178.00   2104.62   2241.14   2173.52   2131.69   2131.67   2060.17   2056.79   1870.88
   2617.40   2259.48   2178.00   2104.62   2241.14   2173.52   2131.68   2131.66   2060.18   2056.79   1870.94
   2617.40   2259.49   2178.01   2104.63   2241.14   2173.52   2131.68   2131.65   2060.18   2056.80   1870.94
   2617.41   2259.50   2178.01   2104.63   2241.14   2173.52   2131.67   2131.64   2060.18   2056.80   1870.94
   2617.41   2259.50   2178.01   2104.64   2241.15   2173.52   2131.66   2131.63   2060.19   2056.80   1870.94
   2617.42   2259.51   2178.01   2104.64   2241.15   2173.52   2131.66   2131.62   2060.19   2056.80   1870.73
   2617.42   2259.51   2178.02   2104.65   2241.15   2173.52   2131.65   2131.61   2060.20   2056.81   1870.95
   2617.42   2259.51   2178.02   2104.65   2241.15   2173.52   2131.64   2131.61   2060.20   2056.81   1870.76
   2617.43   2259.52   2178.02   2104.66   2241.16   2173.52   2131.64   2131.60   2060.20   2056.81   1870.75
   2617.43   2259.52   2178.02   2104.66   2241.16   2173.52   2131.63   2131.59   2060.21   2056.81   1870.22
   2617.43   2259.52   2178.02   2104.66   2241.16   2173.52   2131.62   2131.58   2060.21   2056.82   1870.18
   2617.43   2259.53   2178.02   2104.67   2241.17   2173.52   2131.62   2131.57   2060.22   2056.82   1870.18
   2617.44   2259.53   2178.03   2104.67   2241.17   2173.52   2131.61   2131.56   2060.22   2056.82   1870.18
   2617.44   2259.53   2178.03   2104.68   2241.17   2173.52   2131.60   2131.55   2060.22   2056.82   1870.64
   2617.44   2259.54   2178.03   2104.68   2241.17   2173.52   2131.59   2131.54   2060.23   2056.83   1870.31
   2617.44   2259.54   2178.03   2104.69   2241.18   2173.52   2131.59   2131.53   2060.23   2056.83   1870.56
   2617.44   2259.54   2178.03   2104.69   2241.18   2173.52   2131.58   2131.52   2060.24   2056.83   1870.44
   2617.44   2259.54   2178.03   2104.70   2241.18   2173.52   2131.57   2131.51   2060.24   2056.83   1870.44
   2617.45   2259.55   2178.04   2104.70   2241.18   2173.52   2131.57   2131.51   2060.24   2056.84   1870.34
   2617.45   2259.55   2178.04   2104.70   2241.19   2173.52   2131.56   2131.50   2060.25   2056.84   1870.48
   2617.45   2259.55   2178.05   2104.71   2241.19   2173.52   2131.55   2131.49   2060.25   2056.84   1870.50
   2617.45   2259.55   2178.05   2104.71   2241.19   2173.52   2131.55   2131.48   2060.26   2056.84   1870.67
   2617.45   2259.56   2178.06   2104.72   2241.19   2173.52   2131.54   2131.47   2060.26   2056.84   1870.58
   2617.45   2259.56   2178.06   2104.72   2241.20   2173.52   2131.53   2131.46   2060.26   2056.85   1870.83
   2617.46   2259.56   2178.07   2104.73   2241.20   2173.52   2131.53   2131.45   2060.27   2056.85   1870.56
   2617.46   2259.56   2178.07   2104.73   2241.20   2173.52   2131.52   2131.44   2060.27   2056.85   1870.59
   2617.46   2259.57   2178.08   2104.74   2241.20   2173.52   2131.51   2131.43   2060.28   2056.85   1870.58
   2617.46   2259.57   2178.08   2104.74   2241.21   2173.52   2131.51   2131.42   2060.28   2056.86   1870.65
   2617.46   2259.57   2178.09   2104.74   2241.21   2173.52   2131.50   2131.42   2060.28   2056.86   1871.04
   2617.46   2259.57   2178.09   2104.75   2241.21   2173.52   2131.49   2131.41   2060.29   2056.86   1870.75
   2617.46   2259.58   2178.10   2104.75   2241.21   2173.52   2131.49   2131.40   2060.29   2056.86   1870.86
   2617.47   2259.58   2178.11   2104.76   2241.22   2173.52   2131.48   2131.39   2060.30   2056.87   1870.94
   2617.47   2259.58   2178.11   2104.76   2241.22   2173.52   2131.47   2131.38   2060.30   2056.87   1871.00
   2617.47   2259.58   2178.12   2104.77   2241.22   2173.52   2131.47   2131.37   2060.30   2056.87   1871.69
   2617.47   2259.59   2178.13   2104.77   2241.23   2173.52   2131.46   2131.36   2060.31   2056.87   1870.63
   2617.47   2259.59   2178.14   2104.78   2241.23   2173.52   2131.45   2131.35   2060.31   2056.88   1870.85
   2617.47   2259.59   2178.15   2104.78   2241.23   2173.52   2131.44   2131.34   2060.31   2056.88   1870.72
   2617.47   2259.59   2178.15   2104.78   2241.23   2173.52   2131.44   2131.34   2060.32   2056.88   1870.83
   2617.48   2259.60   2178.16   2104.79   2241.24   2173.52   2131.43   2131.33   2060.32   2056.88   1871.13
   2617.48   2259.60   2178.16   2104.79   2241.24   2173.52   2131.42   2131.32   2060.33   2056.88   1871.14
   2617.48   2259.60   2178.17   2104.80   2241.24   2173.52   2131.42   2131.31   2060.33   2056.89   1870.68
   2617.48   2259.60   2178.17   2104.80   2241.24   2173.52   2131.41   2131.30   2060.33   2056.89   1870.89
   2617.48   2259.61   2178.17   2104.81   2241.25   2173.52   2131.40   2131.29   2060.34   2056.89   1870.84
   2617.48   2259.61   2178.18   2104.81   2241.25   2173.52   2131.40   2131.28   2060.34   2056.89   1870.92
   2617.48   2259.61   2178.18   2104.81   2241.25   2173.52   2131.39   2131.27   2060.34   2056.90   1871.14
   2617.49   2259.61   2178.20   2104.82   2241.25   2173.52   2131.38   2131.26   2060.35   2056.90   1871.23
   2617.49   2259.62   2178.22   2104.82   2241.26   2173.52   2131.38   2131.26   2060.35   2056.90   1871.73
   2617.49   2259.62   2178.24   2104.83   2241.26   2173.52   2131.37   2131.25   2060.36   2056.90   1871.73
   2617.51   2259.64   2178.26   2104.83   2241.26   2173.52   2131.36   2131.24   2060.36   2056.90   1871.70
   2617.53   2259.66   2178.28   2104.84   2241.26   2173.52   2131.36   2131.23   2060.36   2056.91   1870.96
   2617.56   2259.69   2178.30   2104.84   2241.27   2173.52   2131.35   2131.22   2060.37   2056.91   1871.72
   2617.59   2259.71   2178.31   2104.85   2241.27   2173.52   2131.34   2131.21   2060.37   2056.91   1871.01
   2617.61   2259.74   2178.34   2104.85   2241.27   2173.52   2131.34   2131.20   2060.37   2056.91   1871.61
   2617.64   2259.77   2178.36   2104.85   2241.27   2173.52   2131.33   2131.19   2060.38   2056.92   1871.73
   2617.67   2259.80   2178.37   2104.86   2241.28   2173.52   2131.32   2131.19   2060.38   2056.92   1871.52
   2617.71   2259.83   2178.39   2104.86   2241.28   2173.52   2131.32   2131.18   2060.39   2056.92   1871.36
   2617.74   2259.86   2178.40   2104.87   2241.28   2173.52   2131.31   2131.17   2060.39   2056.92   1871.11
   2617.77   2259.89   2178.42   2104.87   2241.28   2173.52   2131.30   2131.16   2060.39   2056.92   1871.05
   2617.79   2259.91   2178.42   2104.88   2241.29   2173.52   2131.30   2131.15   2060.40   2056.93   1871.02
   2617.81   2259.93   2178.44   2104.88   2241.29   2173.52   2131.29   2131.14   2060.40   2056.93   1871.40
   2617.83   2259.95   2178.46   2104.89   2241.29   2173.52   2131.28   2131.13   2060.40   2056.93   1871.73
   2617.86   2259.98   2178.48   2104.89   2241.29   2173.52   2131.28   2131.12   2060.41   2056.93   1871.17
   2617.88   2260.00   2178.50   2104.89   2241.30   2173.52   2131.27   2131.12   2060.41   2056.93   1871.73
   2617.91   2260.03   2178.52   2104.90   2241.30   2173.52   2131.26   2131.11   2060.41   2056.94   1871.73
   2617.94   2260.06   2178.55   2104.90   2241.30   2173.52   2131.26   2131.10   2060.42   2056.94   1871.73
   2617.97   2260.08   2178.55   2104.91   2241.31   2233.35   2131.25   2131.09   2060.42   2056.94   1871.15
   2617.99   2260.11   2178.56   2104.91   2241.31   2233.36   2131.24   2131.08   2060.42   2056.94   1871.14
   2618.02   2260.13   2178.57   2104.92   2241.31   2233.36   2131.24   2131.07   2060.43   2056.94   1871.09
   2618.04   2260.15   2178.58   2104.92   2241.31   2233.37   2131.23   2131.06   2060.43   2056.95   1871.04
   2618.05   2260.17   2178.58   2104.92   2241.32   2233.37   2131.22   2131.06   2060.44   2056.95   1870.84
   2618.06   2260.18   2178.60   2104.93   2241.32   2233.37   2131.22   2131.05   2060.44   2056.95   1871.05
   2618.08   2260.19   2178.62   2104.93   2241.32   2233.38   2131.21   2131.04   2060.44   2056.95   1871.24
   2618.09   2260.20   2178.63   2104.94   2241.32   2233.38   2131.20   2131.03   2060.45   2056.96   1871.54
   2618.10   2260.21   2178.64   2104.94   2241.33   2233.38   2131.20   2131.02   2060.45   2056.96   1871.36
   2618.11   2260.22   2178.65   2104.95   2241.33   2233.38   2131.19   2131.01   2060.45   2056.96   1871.13
   2618.12   2260.23   2178.66   2104.95   2241.33   2233.38   2131.18   2131.00   2060.46   2056.96   1871.04
   2618.13   2260.25   2178.66   2104.96   2241.33   2233.39   2131.18   2131.00   2060.46   2056.96   1870.92
   2618.14   2260.26   2178.67   2104.96   2241.34   2233.39   2131.17   2130.99   2060.46   2056.97   1871.03
   2618.15   2260.26   2178.67   2104.96   2241.34   2233.39   2131.16   2130.98   2060.47   2056.97   1870.91
   2618.16   2260.27   2178.68   2104.97   2241.34   2233.39   2131.16   2130.97   2060.47   2056.97   1870.95
   2618.16   2260.28   2178.69   2104.97   2241.34   2233.39   2131.15   2130.96   2060.47   2056.97   1870.96
   2618.17   2260.28   2178.69   2104.98   2241.35   2233.39   2131.15   2130.95   2060.48   2056.97   1870.95
   2618.17   2260.29   2178.70   2104.98   2241.35   2233.39   2131.14   2130.94   2060.48   2056.98   1870.96
   2618.18   2260.30   2178.70   2104.99   2241.35   2233.39   2131.13   2130.94   2060.48   2056.98   1870.97
   2618.18   2260.30   2178.71   2104.99   2241.35   2233.39   2131.13   2130.93   2060.49   2056.98   1871.27
   2618.19   2260.30   2178.72   2104.99   2241.36   2233.39   2131.12   2130.92   2060.49   2056.98   1871.30
   2618.19   2260.31   2178.74   2105.00   2241.36   2233.39   2131.11   2130.91   2060.49   2056.98   1871.35
   2618.20   2260.31   2178.75   2105.00   2241.36   2233.39   2131.11   2130.90   2060.50   2056.99   1871.14
   2618.20   2260.32   2178.76   2105.01   2241.36   2233.39   2131.10   2130.89   2060.50   2056.99   1871.12
   2618.20   2260.32   2178.76   2105.01   2241.37   2233.39   2131.09   2130.88   2060.50   2056.99   1870.93
   2618.21   2260.33   2178.77   2105.02   2241.37   2233.39   2131.09   2130.88   2060.51   2056.99   1871.16
   2618.21   2260.33   2178.77   2105.02   2241.37   2233.39   2131.08   2130.87   2060.51   2056.99   1871.22
   2618.21   2260.33   2178.78   2105.03   2241.38   2233.39   2131.07   2130.86   2060.51   2057.00   1871.24
   2618.21   2260.34   2178.80   2105.03   2241.38   2233.39   2131.07   2130.85   2060.52   2057.00   1871.39
   2618.22   2260.34   2178.82   2105.03   2241.38   2233.39   2131.06   2130.84   2060.52   2057.00   1870.89
   2618.22   2260.34   2178.84   2105.04   2241.38   2233.39   2131.05   2130.83   2060.52   2057.00   1870.81
   2618.22   2260.35   2178.86   2105.04   2241.39   2233.39   2131.05   2130.82   2060.53   2057.00   1870.77
   2618.22   2260.35   2178.86   2105.05   2241.39   2233.39   2131.04   2130.82   2060.53   2057.00   1870.77
   2618.22   2260.35   2178.86   2105.05   2241.39   2233.39   2131.03   2130.81   2060.53   2057.01   1870.77
   2618.23   2260.35   2178.87   2105.06   2241.39   2233.39   2131.03   2130.80   2060.54   2057.01   1870.79
   2618.23   2260.36   2178.87   2105.06   2241.40   2233.39   2131.02   2130.79   2060.54   2057.01   1870.85
   2618.23   2260.36   2178.87   2105.07   2241.40   2233.39   2131.01   2130.78   2060.54   2057.01   1870.82
   2618.23   2260.36   2178.88   2105.07   2241.40   2233.39   2131.01   2130.77   2060.55   2057.01   1870.77
   2618.24   2260.37   2178.88   2105.08   2241.40   2233.39   2131.00   2130.76   2060.55   2057.02   1870.73
   2618.24   2260.37   2178.88   2105.08   2241.41   2233.39   2130.99   2130.75   2060.56   2057.02   1871.24
   2618.24   2260.37   2178.89   2105.08   2241.41   2233.39   2130.99   2130.74   2060.56   2057.02   1871.73
   2618.25   2260.38   2178.90   2105.09   2241.41   2233.39   2130.98   2130.74   2060.56   2057.02   1871.26
   2618.26   2260.39   2178.91   2105.09   2241.42   2233.39   2130.97   2130.73   2060.56   2057.02   1871.48
   2618.27   2260.40   2178.93   2105.10   2241.42   2233.39   2130.97   2130.72   2060.57   2057.03   1871.02
   2618.28   2260.42   2178.94   2105.10   2241.42   2233.39   2130.96   2130.71   2060.57   2057.03   1871.67
   2618.29   2260.43   2178.96   2105.11   2241.42   2233.39   2130.95   2130.70   2060.57   2057.03   1871.42
   2618.30   2260.44   2178.98   2105.11   2241.43   2233.40   2130.95   2130.69   2060.58   2057.03   1871.73
   2618.31   2260.45   2179.01   2105.12   2241.43   2233.40   2130.94   2130.69   2060.58   2057.03   1870.92
   2618.32   2260.45   2179.03   2105.12   2241.43   2233.41   2130.93   2130.68   2060.58   2057.04   1870.49
   2618.33   2260.47   2179.05   2105.12   2241.43   2233.42   2130.93   2130.67   2060.59   2057.04   1871.21