 Head values for selected MODFLOW cells
   2615.32   2257.28   2172.56   2103.94   2240.43   2173.52   2132.82   2133.21   2059.40   2056.30   1858.02
   2615.32   2257.28   2172.56   2103.94   2240.43   2173.52   2132.82   2133.21   2059.41   2056.30   1858.03
   2615.31   2257.29   2172.56   2103.95   2240.43   2173.52   2132.82   2133.21   2059.42   2056.31   1858.03
   2615.31   2257.29   2172.56   2103.96   2240.44   2173.52   2132.82   2133.21   2059.44   2056.32   1858.04
   2615.31   2257.30   2172.56   2103.96   2240.44   2173.52   2132.81   2133.20   2059.45   2056.32   1858.05
   2615.31   2257.30   2172.56   2103.97   2240.44   2173.52   2132.81   2133.20   2059.46   2056.33   1858.05
   2615.31   2257.31   2172.56   2103.98   2240.44   2173.52   2132.81   2133.20   2059.47   2056.33   1858.06
   2615.31   2257.31   2172.56   2103.98   2240.44   2173.52   2132.81   2133.20   2059.48   2056.34   1858.07
   2615.31   2257.32   2172.56   2103.99   2240.44   2173.52   2132.81   2133.19   2059.49   2056.34   1858.07
   2615.30   2257.32   2172.56   2104.00   2240.45   2173.52   2132.80   2133.19   2059.50   2056.35   1858.08
   2615.30   2257.33   2172.56   2104.00   2240.45   2173.52   2132.80   2133.19   2059.51   2056.35   1858.09
   2615.30   2257.33   2172.56   2104.01   2240.45   2173.52   2132.80   2133.19   2059.52   2056.36   1858.09
   2615.30   2257.34   2172.56   2104.02   2240.45   2173.52   2132.80   2133.18   2059.53   2056.36   1858.10
   2615.30   2257.34   2172.56   2104.02   2240.45   2173.52   2132.80   2133.18   2059.54   2056.37   1858.11
   2615.30   2257.35   2172.56   2104.03   2240.45   2173.52   2132.79   2133.18   2059.55   2056.37   1858.12
   2615.30   2257.35   2172.56   2104.04   2240.45   2173.52   2132.79   2133.18   2059.56   2056.38   1858.13
   2615.29   2257.36   2172.56   2104.04   2240.46   2173.52   2132.79   2133.17   2059.57   2056.39   1858.14
   2615.29   2257.36   2172.56   2104.05   2240.46   2173.52   2132.79   2133.17   2059.58   2056.39   1858.15
   2615.29   2257.37   2172.56   2104.06   2240.46   2173.52   2132.78   2133.17   2059.59   2056.40   1858.16
   2615.29   2257.38   2172.56   2104.06   2240.46   2173.52   2132.78   2133.17   2059.60   2056.40   1858.16
   2615.29   2257.38   2172.56   2104.07   2240.46   2173.52   2132.78   2133.16   2059.61   2056.41   1858.17
   2615.29   2257.39   2172.56   2104.08   2240.46   2173.52   2132.78   2133.16   2059.62   2056.41   1858.18
   2615.29   2257.39   2172.56   2104.08   2240.47   2173.52   2132.78   2133.16   2059.63   2056.42   1858.20
   2615.28   2257.40   2172.56   2104.09   2240.47   2173.52   2132.77   2133.16   2059.64   2056.42   1858.21
   2615.28   2257.40   2172.56   2104.09   2240.47   2173.52   2132.77   2133.15   2059.65   2056.43   1858.22
   2615.28   2257.41   2172.56   2104.10   2240.47   2173.52   2132.77   2133.15   2059.66   2056.43   1858.23
   2615.28   2257.41   2172.56   2104.11   2240.47   2173.52   2132.77   2133.15   2059.67   2056.44   1858.24
   2615.28   2257.42   2172.56   2104.11   2240.47   2173.52   2132.77   2133.15   2059.68   2056.44   1858.25
   2615.28   2257.42   2172.56   2104.12   2240.48   2173.52   2132.76   2133.14   2059.69   2056.45   1858.26
   2615.27   2257.43   2172.56   2104.13   2240.48   2173.52   2132.76   2133.14   2059.70   2056.45   1858.27
   2615.27   2257.43   2172.56   2104.13   2240.48   2173.52   2132.76   2133.14   2059.71   2056.46   1858.29
   2615.27   2257.44   2172.56   2104.14   2240.48   2173.52   2132.76   2133.14   2059.72   2056.46   1858.30
   2615.27   2257.44   2172.56   2104.15   2240.48   2173.52   2132.75   2133.14   2059.73   2056.47   1858.31
   2615.27   2257.45   2172.56   2104.15   2240.48   2173.52   2132.75   2133.13   2059.74   2056.47   1858.33
   2615.27   2257.45   2172.56   2104.16   2240.49   2173.52   2132.75   2133.13   2059.75   2056.48   1858.34
   2615.26   2257.46   2172.56   2104.17   2240.49   2173.52   2132.75   2133.13   2059.76   2056.48   1858.35
   2615.26   2257.46   2172.56   2104.17   2240.49   2173.52   2132.75   2133.12   2059.77   2056.49   1858.36
   2615.26   2257.47   2172.56   2104.18   2240.49   2173.52   2132.74   2133.12   2059.78   2056.49   1858.38
   2615.26   2257.47   2172.56   2104.19   2240.49   2173.52   2132.74   2133.12   2059.79   2056.50   1858.39
   2615.26   2257.48   2172.56   2104.19   2240.49   2173.52   2132.74   2133.12   2059.80   2056.50   1858.40
   2615.26   2257.48   2172.56   2104.20   2240.50   2173.52   2132.74   2133.12   2059.81   2056.51   1858.41
   2615.25   2257.49   2172.56   2104.21   2240.50   2173.52   2132.74   2133.11   2059.81   2056.51   1858.43
   2615.25   2257.49   2172.56   2104.21   2240.50   2173.52   2132.73   2133.11   2059.82   2056.52   1858.44
   2615.25   2257.50   2172.56   2104.22   2240.50   2173.52   2132.73   2133.11   2059.83   2056.52   1858.46
   2615.25   2257.51   2172.56   2104.23   2240.50   2173.52   2132.73   2133.11   2059.84   2056.53   1858.47
   2615.25   2257.51   2172.56   2104.23   2240.50   2173.52   2132.73   2133.10   2059.85   2056.53   1858.49
   2615.25   2257.52   2172.56   2104.24   2240.51   2173.52   2132.73   2133.10   2059.86   2056.54   1858.50
   2615.24   2257.52   2172.56   2104.25   2240.51   2173.52   2132.72   2133.10   2059.87   2056.54   1858.52
   2615.24   2257.53   2172.56   2104.25   2240.51   2173.52   2132.72   2133.10   2059.88   2056.55   1858.53
   2615.24   2257.53   2172.56   2104.26   2240.51   2173.52   2132.72   2133.09   2059.89   2056.55   1858.55
   2615.24   2257.54   2172.56   2104.27   2240.51   2173.52   2132.72   2133.09   2059.89   2056.56   1858.57
   2615.24   2257.54   2172.56   2104.27   2240.51   2173.52   2132.71   2133.09   2059.90   2056.56   1858.58
   2615.23   2257.55   2172.56   2104.28   2240.52   2173.52   2132.71   2133.09   2059.91   2056.57   1858.60
   2615.23   2257.55   2172.56   2104.28   2240.52   2173.52   2132.71   2133.08   2059.92   2056.57   1858.61
   2615.23   2257.56   2172.56   2104.29   2240.52   2173.52   2132.71   2133.08   2059.93   2056.58   1858.63
   2615.23   2257.56   2172.56   2104.30   2240.52   2173.52   2132.71   2133.08   2059.94   2056.58   1858.65
   2615.23   2257.57   2172.56   2104.30   2240.52   2173.52   2132.70   2133.08   2059.95   2056.59   1858.66
   2615.23   2257.57   2172.56   2104.31   2240.52   2173.52   2132.70   2133.07   2059.95   2056.59   1858.68
   2615.22   2257.58   2172.56   2104.32   2240.53   2173.52   2132.70   2133.07   2059.96   2056.60   1858.70
   2615.22   2257.58   2172.56   2104.32   2240.53   2173.52   2132.70   2133.07   2059.97   2056.60   1858.71
   2615.22   2257.59   2172.56   2104.33   2240.53   2173.52   2132.70   2133.07   2059.98   2056.61   1858.73
   2615.22   2257.59   2172.56   2104.34   2240.53   2173.52   2132.69   2133.06   2059.99   2056.61   1858.75
   2615.22   2257.60   2172.56   2104.34   2240.53   2173.52   2132.69   2133.06   2060.00   2056.62   1858.76
   2615.21   2257.60   2172.56   2104.35   2240.53   2173.52   2132.69   2133.06   2060.00   2056.62   1858.78
   2615.21   2257.61   2172.56   2104.36   2240.53   2173.52   2132.69   2133.06   2060.01   2056.63   1858.80
   2615.21   2257.61   2172.56   2104.36   2240.54   2173.52   2132.69   2133.05   2060.02   2056.63   1858.82
   2615.21   2257.62   2172.56   2104.37   2240.54   2173.52   2132.68   2133.05   2060.03   2056.64   1858.85
   2615.21   2257.63   2172.56   2104.38   2240.54   2173.52   2132.68   2133.05   2060.04   2056.64   1858.86
   2615.20   2257.63   2172.56   2104.38   2240.54   2173.52   2132.68   2133.05   2060.04   2056.64   1858.89
   2615.20   2257.64   2172.56   2104.39   2240.54   2173.52   2132.68   2133.04   2060.05   2056.65   1858.93
   2615.20   2257.64   2177.21   2104.40   2240.54   2173.52   2132.67   2133.04   2060.06   2056.65   1858.96
   2615.20   2257.65   2177.22   2104.40   2240.55   2173.52   2132.67   2133.04   2060.07   2056.66   1859.02
   2615.20   2257.65   2177.22   2104.41   2240.55   2173.52   2132.67   2133.04   2060.08   2056.66   1859.09
   2615.20   2257.66   2177.22   2104.42   2240.55   2173.52   2132.67   2133.03   2060.08   2056.67   1859.12
   2615.20   2257.67   2177.22   2104.42   2240.55   2173.52   2132.67   2133.03   2060.09   2056.67   1859.17
   2615.20   2257.67   2177.23   2104.43   2240.55   2173.52   2132.66   2133.03   2060.10   2056.68   1859.23
   2615.20   2257.68   2177.23   2104.43   2240.55   2173.52   2132.66   2133.03   2060.11   2056.68   1859.30
   2615.21   2257.69   2177.23   2104.44   2240.56   2173.52   2132.66   2133.02   2060.11   2056.69   1859.32
   2615.21   2257.70   2177.23   2104.45   2240.56   2173.52   2132.66   2133.02   2060.12   2056.69   1859.34
   2615.21   2257.70   2177.23   2104.45   2240.56   2173.52   2132.66   2133.02   2060.13   2056.69   1859.36
   2615.21   2257.71   2177.23   2104.46   2240.56   2173.52   2132.65   2133.02   2060.14   2056.70   1859.39
   2615.21   2257.71   2177.23   2104.47   2240.56   2173.52   2132.65   2133.01   2060.14   2056.70   1859.40
   2615.20   2257.72   2177.23   2104.47   2240.56   2173.52   2132.65   2133.01   2060.15   2056.71   1859.41
   2615.20   2257.73   2177.23   2104.48   2240.57   2173.52   2132.65   2133.01   2060.16   2056.71   1859.44
   2615.20   2257.73   2177.23   2104.49   2240.57   2173.52   2132.65   2133.01   2060.17   2056.72   1859.45
   2615.20   2257.74   2177.23   2104.49   2240.57   2173.52   2132.64   2133.00   2060.17   2056.72   1859.46
   2615.20   2257.74   2177.23   2104.50   2240.57   2173.52   2132.64   2133.00   2060.18   2056.73   1859.47
   2615.19   2257.75   2177.23   2104.51   2240.57   2173.52   2132.64   2133.00   2060.19   2056.73   1859.49
   2615.19   2257.75   2177.23   2104.51   2240.57   2173.52   2132.64   2133.00   2060.19   2056.73   1859.50
   2615.19   2257.76   2177.23   2104.52   2240.58   2173.52   2132.64   2133.00   2060.20   2056.74   1859.51
   2615.19   2257.76   2177.23   2104.52   2240.58   2173.52   2132.63   2132.99   2060.21   2056.74   1859.53
   2615.19   2257.77   2177.23   2104.53   2240.58   2173.52   2132.63   2132.99   2060.21   2056.75   1859.55
   2615.18   2257.77   2177.23   2104.54   2240.58   2173.52   2132.63   2132.99   2060.22   2056.75   1859.57
   2615.18   2257.78   2177.24   2104.54   2240.58   2173.52   2132.63   2132.99   2060.23   2056.76   1859.62
   2615.18   2257.79   2177.24   2104.55   2240.58   2173.52   2132.62   2132.98   2060.24   2056.76   1859.65
   2615.19   2257.79   2177.24   2104.56   2240.59   2173.52   2132.62   2132.98   2060.24   2056.76   1859.68
   2615.19   2257.80   2177.24   2104.56   2240.59   2173.52   2132.62   2132.98   2060.25   2056.77   1859.72
   2615.19   2257.81   2177.24   2104.57   2240.60   2173.52   2132.62   2132.98   2060.26   2056.77   1859.75
   2615.19   2257.82   2177.24   2104.58   2240.60   2173.52   2132.62   2132.97   2060.26   2056.78   1859.79
   2615.19   2257.82   2177.24   2104.58   2240.60   2173.52   2132.61   2132.97   2060.27   2056.78   1859.80
   2615.19   2257.83   2177.24   2104.59   2240.60   2173.52   2132.61   2132.97   2060.28   2056.79   1859.82
   2615.19   2257.83   2177.24   2104.60   2240.60   2173.52   2132.61   2132.97   2060.28   2056.79   1859.83
   2615.19   2257.84   2177.24   2104.60   2240.60   2173.52   2132.61   2132.96   2060.29   2056.79   1859.84
   2615.19   2257.85   2177.24   2104.61   2240.61   2173.52   2132.61   2132.96   2060.30   2056.80   1859.86
   2615.19   2257.85   2177.24   2104.61   2240.61   2173.52   2132.60   2132.96   2060.30   2056.80   1859.89
   2615.18   2257.86   2177.24   2104.62   2240.61   2173.52   2132.60   2132.96   2060.31   2056.81   1859.90
   2615.18   2257.86   2177.24   2104.63   2240.61   2173.52   2132.60   2132.95   2060.32   2056.81   1859.92
   2615.18   2257.87   2177.24   2104.63   2240.61   2173.52   2132.60   2132.95   2060.32   2056.82   1859.93
   2615.18   2257.87   2177.24   2104.64   2240.61   2173.52   2132.60   2132.95   2060.33   2056.82   1859.94
   2615.18   2257.88   2177.24   2104.65   2240.62   2173.52   2132.59   2132.95   2060.33   2056.82   1859.96
   2615.17   2257.88   2177.24   2104.65   2240.62   2173.52   2132.59   2132.94   2060.34   2056.83   1859.99
   2615.17   2257.89   2177.24   2104.66   2240.62   2173.52   2132.59   2132.94   2060.35   2056.83   1860.00
   2615.17   2257.89   2177.24   2104.67   2240.62   2173.52   2132.59   2132.94   2060.35   2056.84   1860.01
   2615.17   2257.90   2177.24   2104.67   2240.62   2173.52   2132.58   2132.94   2060.36   2056.84   1860.04
   2615.17   2257.90   2177.24   2104.68   2240.62   2173.52   2132.58   2132.93   2060.37   2056.84   1860.05
   2615.16   2257.91   2177.24   2104.69   2240.63   2173.52   2132.58   2132.93   2060.37   2056.85   1860.06
   2615.16   2257.92   2177.25   2104.69   2240.63   2173.52   2132.58   2132.93   2060.38   2056.85   1860.12
   2615.16   2257.92   2177.25   2104.70   2240.63   2173.52   2132.58   2132.93   2060.38   2056.86   1860.20
   2615.17   2257.93   2177.26   2104.70   2240.63   2173.52   2132.57   2132.92   2060.39   2056.86   1860.27
   2615.17   2257.94   2177.27   2104.71   2240.63   2173.52   2132.57   2132.92   2060.40   2056.86   1860.34
   2615.17   2257.94   2177.27   2104.72   2240.64   2173.52   2132.57   2132.92   2060.40   2056.87   1860.42
   2615.17   2257.95   2177.28   2104.72   2240.64   2173.52   2132.57   2132.92   2060.41   2056.87   1860.48
   2615.16   2257.96   2177.28   2104.73   2240.64   2173.52   2132.57   2132.91   2060.41   2056.88   1860.53
   2615.16   2257.96   2177.28   2104.74   2240.64   2173.52   2132.56   2132.91   2060.42   2056.88   1860.57
   2615.16   2257.97   2177.28   2104.74   2240.64   2173.52   2132.56   2132.91   2060.43   2056.88   1860.62
   2615.16   2257.97   2177.28   2104.75   2240.64   2173.52   2132.56   2132.91   2060.43   2056.89   1860.64
   2615.16   2257.98   2177.28   2104.76   2240.65   2173.52   2132.56   2132.91   2060.44   2056.89   1860.66
   2615.15   2257.98   2177.28   2104.76   2240.65   2173.52   2132.56   2132.90   2060.44   2056.90   1860.69
   2615.15   2257.99   2177.29   2104.77   2240.65   2173.52   2132.55   2132.90   2060.45   2056.90   1860.74
   2615.15   2257.99   2177.29   2104.77   2240.65   2173.52   2132.55   2132.90   2060.45   2056.90   1860.81
   2615.15   2258.00   2177.30   2104.78   2240.66   2173.52   2132.55   2132.90   2060.46   2056.91   1860.89
   2615.15   2258.01   2177.31   2104.79   2240.66   2173.52   2132.55   2132.89   2060.47   2056.91   1860.96
   2615.16   2258.01   2177.32   2104.79   2240.66   2173.52   2132.55   2132.89   2060.47   2056.91   1861.04
   2615.15   2258.02   2177.32   2104.80   2240.67   2173.52   2132.54   2132.89   2060.48   2056.92   1861.11
   2615.15   2258.03   2177.33   2104.81   2240.67   2173.52   2132.54   2132.89   2060.48   2056.92   1861.18
   2615.15   2258.03   2177.33   2104.81   2240.67   2173.52   2132.54   2132.88   2060.49   2056.93   1861.24
   2615.15   2258.04   2177.33   2104.82   2240.67   2173.52   2132.54   2132.88   2060.49   2056.93   1861.29
   2615.15   2258.04   2177.33   2104.82   2240.67   2173.52   2132.53   2132.88   2060.50   2056.93   1861.34
   2615.14   2258.05   2177.34   2104.83   2240.68   2173.52   2132.53   2132.88   2060.50   2056.94   1861.41
   2615.14   2258.05   2177.34   2104.84   2240.68   2173.52   2132.53   2132.87   2060.51   2056.94   1861.46
   2615.14   2258.06   2177.34   2104.84   2240.68   2173.52   2132.53   2132.87   2060.51   2056.94   1861.51
   2615.14   2258.06   2177.34   2104.85   2240.68   2173.52   2132.53   2132.87   2060.52   2056.95   1861.57
   2615.14   2258.07   2177.34   2104.86   2240.68   2173.52   2132.52   2132.87   2060.52   2056.95   1861.59
   2615.13   2258.07   2177.34   2104.86   2240.68   2173.52   2132.52   2132.86   2060.53   2056.96   1861.62
   2615.13   2258.08   2177.35   2104.87   2240.69   2173.52   2132.52   2132.86   2060.54   2056.96   1861.66
   2615.13   2258.09   2177.35   2104.88   2240.69   2173.52   2132.52   2132.86   2060.54   2056.96   1861.73
   2615.13   2258.09   2177.35   2104.88   2240.69   2173.52   2132.52   2132.86   2060.55   2056.97   1861.78
   2615.13   2258.10   2177.35   2104.89   2240.69   2173.52   2132.51   2132.85   2060.55   2056.97   1861.85
   2615.13   2258.11   2177.36   2104.89   2240.69   2173.52   2132.51   2132.85   2060.56   2056.97   1861.90
   2615.13   2258.11   2177.36   2104.90   2240.69   2173.52   2132.51   2132.85   2060.56   2056.98   1861.93
   2615.12   2258.12   2177.36   2104.91   2240.70   2173.52   2132.51   2132.85   2060.57   2056.98   1861.98
   2615.12   2258.12   2177.36   2104.91   2240.70   2173.52   2132.51   2132.84   2060.57   2056.98   1862.03
   2615.12   2258.13   2177.36   2104.92   2240.70   2173.52   2132.50   2132.84   2060.58   2056.99   1862.07
   2615.12   2258.13   2177.36   2104.93   2240.70   2173.52   2132.50   2132.84   2060.58   2056.99   1862.12
   2615.12   2258.14   2177.37   2104.93   2240.70   2173.52   2132.50   2132.84   2060.59   2057.00   1862.16
   2615.11   2258.14   2177.37   2104.94   2240.70   2173.52   2132.50   2132.84   2060.59   2057.00   1862.21
   2615.11   2258.15   2177.37   2104.94   2240.71   2173.52   2132.50   2132.83   2060.60   2057.00   1862.23
   2615.11   2258.15   2177.37   2104.95   2240.71   2173.52   2132.49   2132.83   2060.60   2057.01   1862.25
   2615.11   2258.16   2177.37   2104.96   2240.71   2173.52   2132.49   2132.83   2060.60   2057.01   1862.27
   2615.10   2258.17   2177.37   2104.96   2240.71   2173.52   2132.49   2132.83   2060.61   2057.01   1862.31
   2615.10   2258.17   2177.37   2104.97   2240.71   2173.52   2132.49   2132.82   2060.61   2057.02   1862.36
   2615.10   2258.18   2177.37   2104.98   2240.71   2173.52   2132.49   2132.82   2060.62   2057.02   1862.40
   2615.10   2258.18   2177.37   2104.98   2240.72   2173.52   2132.48   2132.82   2060.62   2057.02   1862.45
   2615.10   2258.19   2177.37   2104.99   2240.72   2173.52   2132.48   2132.82   2060.63   2057.03   1862.47
   2615.09   2258.19   2177.37   2105.00   2240.72   2173.52   2132.48   2132.81   2060.63   2057.03   1862.49
   2615.09   2258.20   2177.37   2105.00   2240.72   2173.52   2132.48   2132.81   2060.64   2057.03   1862.50
   2615.09   2258.20   2177.37   2105.01   2240.72   2173.52   2132.47   2132.81   2060.64   2057.04   1862.52
   2615.09   2258.21   2177.37   2105.01   2240.72   2173.52   2132.47   2132.81   2060.65   2057.04   1862.55
   2615.08   2258.21   2177.37   2105.02   2240.73   2173.52   2132.47   2132.80   2060.65   2057.04   1862.57
   2615.08   2258.22   2177.37   2105.03   2240.73   2173.52   2132.47   2132.80   2060.66   2057.05   1862.60
   2615.08   2258.22   2177.37   2105.03   2240.73   2173.52   2132.47   2132.80   2060.66   2057.05   1862.62
   2615.08   2258.23   2177.37   2105.04   2240.73   2173.52   2132.46   2132.80   2060.66   2057.05   1862.65
   2615.07   2258.24   2177.37   2105.05   2240.73   2173.52   2132.46   2132.79   2060.67   2057.06   1862.67
   2615.07   2258.24   2177.37   2105.05   2240.73   2173.52   2132.46   2132.79   2060.67   2057.06   1862.70
   2615.07   2258.25   2177.37   2105.06   2240.74   2173.52   2132.46   2132.79   2060.68   2057.06   1862.73
   2615.07   2258.25   2177.37   2105.06   2240.74   2173.52   2132.46   2132.79   2060.68   2057.07   1862.76
   2615.06   2258.26   2177.37   2105.07   2240.74   2173.52   2132.45   2132.78   2060.69   2057.07   1862.79
   2615.06   2258.26   2177.37   2105.08   2240.74   2173.52   2132.45   2132.78   2060.69   2057.07   1862.83
   2615.06   2258.27   2177.37   2105.08   2240.74   2173.52   2132.45   2132.78   2060.69   2057.08   1862.86
   2615.06   2258.27   2177.37   2105.09   2240.74   2173.52   2132.45   2132.78   2060.70   2057.08   1862.89
   2615.05   2258.28   2177.37   2105.10   2240.75   2173.52   2132.45   2132.78   2060.70   2057.08   1862.92
   2615.05   2258.28   2177.37   2105.10   2240.75   2173.52   2132.44   2132.77   2060.71   2057.09   1862.96
   2615.05   2258.29   2177.37   2105.11   2240.75   2173.52   2132.44   2132.77   2060.71   2057.09   1863.00
   2615.05   2258.30   2177.37   2105.11   2240.75   2173.52   2132.44   2132.77   2060.71   2057.09   1863.04
   2615.05   2258.30   2177.37   2105.12   2240.75   2173.52   2132.44   2132.77   2060.72   2057.10   1863.08
   2615.04   2258.31   2177.37   2105.13   2240.75   2173.52   2132.44   2132.76   2060.72   2057.10   1863.13
   2615.04   2258.31   2177.37   2105.13   2240.76   2173.52   2132.43   2132.76   2060.73   2057.10   1863.19
   2615.04   2258.32   2177.37   2105.14   2240.76   2173.52   2132.43   2132.76   2060.73   2057.10   1863.26
   2615.04   2258.32   2177.37   2105.15   2240.76   2173.52   2132.43   2132.76   2060.73   2057.11   1863.30
   2615.03   2258.33   2177.37   2105.15   2240.76   2173.52   2132.43   2132.75   2060.74   2057.11   1863.34
   2615.03   2258.33   2177.37   2105.16   2240.76   2173.52   2132.43   2132.75   2060.74   2057.11   1863.37
   2615.03   2258.34   2177.37   2105.16   2240.76   2173.52   2132.42   2132.75   2060.75   2057.12   1863.40
   2615.03   2258.35   2177.37   2105.17   2240.77   2173.52   2132.42   2132.75   2060.75   2057.12   1863.46
   2615.02   2258.35   2177.37   2105.18   2240.77   2173.52   2132.42   2132.74   2060.75   2057.12   1863.52
   2615.02   2258.36   2177.38   2105.18   2240.77   2173.52   2132.42   2132.74   2060.76   2057.13   1863.56
   2615.02   2258.36   2177.38   2105.19   2240.77   2173.52   2132.42   2132.74   2060.76   2057.13   1863.60
   2615.02   2258.37   2177.38   2105.20   2240.77   2173.52   2132.41   2132.74   2060.77   2057.13   1863.63
   2615.01   2258.37   2177.38   2105.20   2240.77   2173.52   2132.41   2132.73   2060.77   2057.14   1863.67
   2615.01   2258.38   2177.38   2105.21   2240.78   2173.52   2132.41   2132.73   2060.77   2057.14   1863.72
   2615.01   2258.38   2177.39   2105.21   2240.78   2173.52   2132.41   2132.73   2060.78   2057.14   1863.78
   2615.00   2258.39   2177.39   2105.22   2240.78   2173.52   2132.41   2132.73   2060.78   2057.14   1863.86
   2615.00   2258.40   2177.40   2105.23   2240.78   2173.52   2132.40   2132.73   2060.78   2057.15   1863.93
   2615.00   2258.40   2177.41   2105.23   2240.78   2173.52   2132.40   2132.72   2060.79   2057.15   1864.00
   2615.00   2258.41   2177.41   2105.24   2240.78   2173.52   2132.40   2132.72   2060.79   2057.15   1864.08
   2615.00   2258.42   2177.42   2105.24   2240.79   2173.52   2132.40   2132.72   2060.79   2057.16   1864.15
   2615.00   2258.42   2177.42   2105.25   2240.79   2173.52   2132.39   2132.72   2060.80   2057.16   1864.20
   2615.00   2258.43   2177.43   2105.26   2240.79   2173.52   2132.39   2132.71   2060.80   2057.16   1864.27
   2615.00   2258.43   2177.44   2105.26   2240.79   2173.52   2132.39   2132.71   2060.80   2057.16   1864.35
   2615.00   2258.44   2177.44   2105.27   2240.79   2173.52   2132.39   2132.71   2060.81   2057.17   1864.41
   2615.00   2258.45   2177.45   2105.28   2240.79   2173.52   2132.39   2132.71   2060.81   2057.17   1864.48
   2615.00   2258.45   2177.45   2105.28   2240.80   2173.52   2132.38   2132.70   2060.82   2057.17   1864.53
   2614.99   2258.46   2177.45   2105.29   2240.80   2173.52   2132.38   2132.70   2060.82   2057.18   1864.58
   2614.99   2258.46   2177.46   2105.29   2240.80   2173.52   2132.38   2132.70   2060.82   2057.18   1864.62
   2614.99   2258.47   2177.46   2105.30   2240.80   2173.52   2132.38   2132.70   2060.83   2057.18   1864.69
   2614.99   2258.48   2177.47   2105.31   2240.80   2173.52   2132.38   2132.69   2060.83   2057.18   1864.76
   2614.99   2258.48   2177.47   2105.31   2240.80   2173.52   2132.37   2132.69   2060.83   2057.19   1864.82
   2614.99   2258.49   2177.48   2105.32   2240.81   2173.52   2132.37   2132.69   2060.84   2057.19   1864.89
   2614.98   2258.50   2177.49   2105.33   2240.81   2173.52   2132.37   2132.69   2060.84   2057.19   1864.97
   2614.98   2258.50   2177.49   2105.33   2240.81   2173.52   2132.37   2132.68   2060.84   2057.19   1865.04
   2614.98   2258.51   2177.50   2105.34   2240.81   2233.36   2132.37   2132.68   2060.84   2057.20   1865.10
   2614.98   2258.51   2177.50   2105.34   2240.81   2233.36   2132.36   2132.68   2060.85   2057.20   1865.14
   2614.98   2258.52   2177.50   2105.35   2240.81   2233.36   2132.36   2132.68   2060.85   2057.20   1865.19
   2614.97   2258.52   2177.50   2105.36   2240.82   2233.36   2132.36   2132.68   2060.85   2057.21   1865.23
   2614.97   2258.53   2177.50   2105.36   2240.82   2233.36   2132.36   2132.67   2060.86   2057.21   1865.28
   2614.97   2258.54   2177.51   2105.37   2240.82   2233.36   2132.36   2132.67   2060.86   2057.21   1865.34
   2614.97   2258.54   2177.51   2105.37   2240.82   2233.36   2132.35   2132.67   2060.86   2057.21   1865.39
   2614.96   2258.55   2177.52   2105.38   2240.82   2233.36   2132.35   2132.67   2060.87   2057.22   1865.47
   2614.96   2258.55   2177.52   2105.39   2240.82   2233.36   2132.35   2132.66   2060.87   2057.22   1865.53
   2614.96   2258.56   2177.52   2105.39   2240.83   2233.36   2132.35   2132.66   2060.87   2057.22   1865.59
   2614.96   2258.56   2177.52   2105.40   2240.83   2233.36   2132.35   2132.66   2060.88   2057.22   1865.64
   2614.96   2258.57   2177.52   2105.41   2240.83   2233.36   2132.34   2132.66   2060.88   2057.23   1865.68
   2614.95   2258.58   2177.52   2105.41   2240.83   2233.36   2132.34   2132.65   2060.88   2057.23   1865.73
   2614.95   2258.58   2177.52   2105.42   2240.83   2233.36   2132.34   2132.65   2060.88   2057.23   1865.77
   2614.95   2258.59   2177.52   2105.42   2240.83   2233.36   2132.34   2132.65   2060.89   2057.23   1865.81
   2614.95   2258.59   2177.52   2105.43   2240.84   2233.36   2132.34   2132.65   2060.89   2057.24   1865.86
   2614.94   2258.60   2177.52   2105.44   2240.84   2233.36   2132.33   2132.64   2060.89   2057.24   1865.90
   2614.94   2258.60   2177.52   2105.44   2240.84   2233.36   2132.33   2132.64   2060.90   2057.24   1865.94
   2614.94   2258.61   2177.52   2105.45   2240.84   2233.36   2132.33   2132.64   2060.90   2057.24   1865.98
   2614.94   2258.61   2177.52   2105.45   2240.84   2233.36   2132.33   2132.64   2060.90   2057.25   1866.04
   2614.93   2258.62   2177.53   2105.46   2240.84   2233.36   2132.33   2132.64   2060.90   2057.25   1866.10
   2614.93   2258.62   2177.53   2105.47   2240.85   2233.36   2132.32   2132.63   2060.91   2057.25   1866.17
   2614.93   2258.63   2177.53   2105.47   2240.85   2233.36   2132.32   2132.63   2060.91   2057.25   1866.23
   2614.92   2258.64   2177.53   2105.48   2240.85   2233.36   2132.32   2132.63   2060.91   2057.26   1866.28
   2614.92   2258.64   2177.53   2105.48   2240.85   2233.36   2132.32   2132.63   2060.92   2057.26   1866.33
   2614.92   2258.65   2177.53   2105.49   2240.85   2233.36   2132.32   2132.62   2060.92   2057.26   1866.40
   2614.92   2258.65   2177.53   2105.50   2240.85   2233.36   2132.31   2132.62   2060.92   2057.26   1866.45
   2614.91   2258.66   2177.54   2105.50   2240.86   2233.36   2132.31   2132.62   2060.92   2057.27   1866.51
   2614.91   2258.66   2177.54   2105.51   2240.86   2233.36   2132.31   2132.62   2060.93   2057.27   1866.58
   2614.91   2258.67   2177.54   2105.52   2240.86   2233.36   2132.31   2132.61   2060.93   2057.27   1866.63
   2614.91   2258.67   2177.54   2105.52   2240.86   2233.36   2132.30   2132.61   2060.93   2057.27   1866.67
   2614.90   2258.68   2177.54   2105.53   2240.86   2233.36   2132.30   2132.61   2060.93   2057.28   1866.71
   2614.90   2258.68   2177.54   2105.53   2240.86   2233.36   2132.30   2132.61   2060.94   2057.28   1866.75
   2614.90   2258.69   2177.54   2105.54   2240.87   2233.36   2132.30   2132.60   2060.94   2057.28   1866.79
   2614.90   2258.70   2177.54   2105.55   2240.87   2233.36   2132.30   2132.60   2060.94   2057.28   1866.83
   2614.89   2258.70   2177.54   2105.55   2240.87   2233.36   2132.29   2132.60   2060.94   2057.28   1866.87
   2614.89   2258.71   2177.54   2105.56   2240.87   2233.36   2132.29   2132.60   2060.95   2057.29   1866.92
   2614.89   2258.71   2177.54   2105.56   2240.87   2233.36   2132.29   2132.60   2060.95   2057.29   1866.96
   2614.88   2258.72   2177.54   2105.57   2240.87   2233.36   2132.29   2132.59   2060.95   2057.29   1867.00
   2614.88   2258.72   2177.54   2105.58   2240.88   2233.36   2132.29   2132.59   2060.95   2057.29   1867.06
   2614.88   2258.73   2177.55   2105.58   2240.88   2233.36   2132.28   2132.59   2060.96   2057.30   1867.13
   2614.88   2258.73   2177.55   2105.59   2240.88   2233.36   2132.28   2132.59   2060.96   2057.30   1867.19
   2614.88   2258.74   2177.55   2105.59   2240.88   2233.36   2132.28   2132.58   2060.96   2057.30   1867.26
   2614.87   2258.75   2177.55   2105.60   2240.88   2233.36   2132.28   2132.58   2060.96   2057.30   1867.31
   2614.87   2258.75   2177.55   2105.61   2240.88   2233.36   2132.28   2132.58   2060.97   2057.30   1867.38
   2614.87   2258.76   2177.56   2105.61   2240.89   2233.36   2132.27   2132.58   2060.97   2057.31   1867.45
   2614.87   2258.76   2177.56   2105.62   2240.89   2233.36   2132.27   2132.57   2060.97   2057.31   1867.52
   2614.86   2258.77   2177.56   2105.62   2240.89   2233.36   2132.27   2132.57   2060.97   2057.31   1867.57
   2614.86   2258.77   2177.56   2105.63   2240.89   2233.36   2132.27   2132.57   2060.97   2057.31   1867.59
   2614.86   2258.78   2177.57   2105.64   2240.89   2233.36   2132.27   2132.57   2060.98   2057.32   1867.64