pcf
* control data
             restart          estimation
       335      5403        13         0        66
        12        66              single               point         1
   2.000000E+01  -3.000000E+00   3.000000E-01   1.000000E-02        -7
   1.000000E+01   1.000000E+01   1.000000E-03
   1.000000E-01
         0   1.000000E-02         3         3   1.000000E-02         3
         0         0         0
* singular value decomposition
         1
  10000000    1.000000E-06
1
* parameter groups
 soil                    relative              1.0000000000E-02      0  switch                2.0000000000E+00       parabolic             1.0000000000E-05      5.0000000000E-01       smaller              
 aquf                    relative              1.0000000000E-02      0  switch                2.0000000000E+00       parabolic             1.0000000000E-05      5.0000000000E-01       smaller              
 apex                    relative              1.0000000000E-02      0  switch                2.0000000000E+00       parabolic             1.0000000000E-05      5.0000000000E-01       smaller              
 rivbot                  relative              1.0000000000E-02      0  switch                2.0000000000E+00       parabolic             1.0000000000E-05      5.0000000000E-01       smaller              
 rivcd                   relative              1.0000000000E-02      0  switch                2.0000000000E+00       parabolic             1.0000000000E-05      5.0000000000E-01       smaller              
 salt_ca0                relative              1.0000000000E-02      0  switch                2.0000000000E+00       parabolic             1.0000000000E-05      5.0000000000E-01       smaller              
 salt_cl0                relative              1.0000000000E-02      0  switch                2.0000000000E+00       parabolic             1.0000000000E-05      5.0000000000E-01       smaller              
 salt_co30               relative              1.0000000000E-02      0  switch                2.0000000000E+00       parabolic             1.0000000000E-05      5.0000000000E-01       smaller              
 salt_hco30              relative              1.0000000000E-02      0  switch                2.0000000000E+00       parabolic             1.0000000000E-05      5.0000000000E-01       smaller              
 salt_k0                 relative              1.0000000000E-02      0  switch                2.0000000000E+00       parabolic             1.0000000000E-05      5.0000000000E-01       smaller              
 salt_mg0                relative              1.0000000000E-02      0  switch                2.0000000000E+00       parabolic             1.0000000000E-05      5.0000000000E-01       smaller              
 salt_na0                relative              1.0000000000E-02      0  switch                2.0000000000E+00       parabolic             1.0000000000E-05      5.0000000000E-01       smaller              
 salt_so40               relative              1.0000000000E-02      0  switch                2.0000000000E+00       parabolic             1.0000000000E-05      5.0000000000E-01       smaller              
* parameter data
 aquf_caco3             log                    factor                1.0000000000E-05      1.1000000000E-10      5.0000000000E-01       aquf                  1.0000000000E+00      0.0000000000E+00      1          
 aquf_caso4             log                    factor                1.0000000000E-05      1.1000000000E-10      5.0000000000E-01       aquf                  1.0000000000E+00      0.0000000000E+00      1          
 aquf_mgso4             log                    factor                1.0000000000E-05      1.1000000000E-10      5.0000000000E-01       aquf                  1.0000000000E+00      0.0000000000E+00      1          
 soil_caco_h            log                    factor                2.3740000000E+01      1.9150000000E+01      2.8330000000E+01       soil                  1.0000000000E+00      0.0000000000E+00      1          
 soil_caco_l            log                    factor                1.2640000000E+01      1.1250000000E+01      1.4030000000E+01       soil                  1.0000000000E+00      0.0000000000E+00      1          
 soil_caco_m            log                    factor                1.5820000000E+01      1.5080000000E+01      1.6560000000E+01       soil                  1.0000000000E+00      0.0000000000E+00      1          
 soil_caco_mh           log                    factor                1.7855000000E+01      1.6560000000E+01      1.9150000000E+01       soil                  1.0000000000E+00      0.0000000000E+00      1          
 soil_caco_ml           log                    factor                1.4555000000E+01      1.4030000000E+01      1.5080000000E+01       soil                  1.0000000000E+00      0.0000000000E+00      1          
 soil_caso_h            log                    factor                5.8190000000E+00      3.1080000000E+00      8.5300000000E+00       soil                  1.0000000000E+00      0.0000000000E+00      1          
 soil_caso_l            log                    factor                1.8650000000E-01      9.4000000000E-02      2.7900000000E-01       soil                  1.0000000000E+00      0.0000000000E+00      1          
 soil_caso_m            log                    factor                9.9900000000E-01      6.7800000000E-01      1.3200000000E+00       soil                  1.0000000000E+00      0.0000000000E+00      1          
 soil_caso_mh           log                    factor                2.2140000000E+00      1.3200000000E+00      3.1080000000E+00       soil                  1.0000000000E+00      0.0000000000E+00      1          
 soil_caso_ml           log                    factor                4.7850000000E-01      2.7900000000E-01      6.7800000000E-01       soil                  1.0000000000E+00      0.0000000000E+00      1          
 p12                    log                    factor                2.0000000000E+00      1.5000000000E+00      2.5000000000E+00       apex                  1.0000000000E+00      0.0000000000E+00      1          
 p15                    log                    factor                1.5000500000E-01      1.0000000000E-05      3.0000000000E-01       apex                  1.0000000000E+00      0.0000000000E+00      1          
 p16                    log                    factor                1.2500000000E+00      1.0000000000E+00      1.5000000000E+00       apex                  1.0000000000E+00      0.0000000000E+00      1          
 p17                    log                    factor                2.5000500000E-01      1.0000000000E-05      5.0000000000E-01       apex                  1.0000000000E+00      0.0000000000E+00      1          
 p20                    log                    factor                2.2500000000E-01      5.0000000000E-02      4.0000000000E-01       apex                  1.0000000000E+00      0.0000000000E+00      1          
 p23                    log                    factor                2.7500000000E-03      2.3000000000E-03      3.2000000000E-03       apex                  1.0000000000E+00      0.0000000000E+00      1          
 p25                    log                    factor                1.0000100000E+00      1.0000000000E-05      2.0000000000E+00       apex                  1.0000000000E+00      0.0000000000E+00      1          
 p40                    log                    factor                5.0050000000E-01      1.0000000000E-03      1.0000000000E+00       apex                  1.0000000000E+00      0.0000000000E+00      1          
 p49                    log                    factor                7.5000100000E+00      1.0000000000E-05      1.5000000000E+01       apex                  1.0000000000E+00      0.0000000000E+00      1          
 p5                     log                    factor                5.0000500000E-01      1.0000000000E-05      1.0000000000E+00       apex                  1.0000000000E+00      0.0000000000E+00      1          
 p50                    log                    factor                1.7500000000E-01      5.0000000000E-02      3.0000000000E-01       apex                  1.0000000000E+00      0.0000000000E+00      1          
 p51                    log                    factor                5.0000000000E-01      1.0000000000E-01      9.0000000000E-01       apex                  1.0000000000E+00      0.0000000000E+00      1          
 p61                    log                    factor                5.0000000000E-01      5.0000000000E-02      9.5000000000E-01       apex                  1.0000000000E+00      0.0000000000E+00      1          
 p90                    log                    factor                5.0500000000E+01      1.0000000000E+00      1.0000000000E+02       apex                  1.0000000000E+00      0.0000000000E+00      1          
 p91                    log                    factor                5.0050000000E-01      1.0000000000E-03      1.0000000000E+00       apex                  1.0000000000E+00      0.0000000000E+00      1          
 p92                    log                    factor                1.0500000000E+00      1.0000000000E-01      2.0000000000E+00       apex                  1.0000000000E+00      0.0000000000E+00      1          
 rivbot_rg01            log                    factor                5.0001000000E+00      1.0000000000E-01      1.0000000000E+01       rivbot                1.0000000000E+00      -5.0000000000E+00     1          
 rivbot_rg02            log                    factor                5.0001000000E+00      1.0000000000E-01      1.0000000000E+01       rivbot                1.0000000000E+00      -5.0000000000E+00     1          
 rivbot_rg03            log                    factor                5.0001000000E+00      1.0000000000E-01      1.0000000000E+01       rivbot                1.0000000000E+00      -5.0000000000E+00     1          
 rivbot_rg04            log                    factor                5.0001000000E+00      1.0000000000E-01      1.0000000000E+01       rivbot                1.0000000000E+00      -5.0000000000E+00     1          
 rivbot_rg05            log                    factor                5.0001000000E+00      1.0000000000E-01      1.0000000000E+01       rivbot                1.0000000000E+00      -5.0000000000E+00     1          
 rivcd_rg01             log                    factor                5.0010000000E+01      1.0000000000E-01      1.0000000000E+02       rivcd                 1.0000000000E+00      -5.0000000000E+01     1          
 rivcd_rg02             log                    factor                5.0010000000E+01      1.0000000000E-01      1.0000000000E+02       rivcd                 1.0000000000E+00      -5.0000000000E+01     1          
 rivcd_rg03             log                    factor                5.0010000000E+01      1.0000000000E-01      1.0000000000E+02       rivcd                 1.0000000000E+00      -5.0000000000E+01     1          
 rivcd_rg04             log                    factor                5.0010000000E+01      1.0000000000E-01      1.0000000000E+02       rivcd                 1.0000000000E+00      -5.0000000000E+01     1          
 rivcd_rg05             log                    factor                5.0010000000E+01      1.0000000000E-01      1.0000000000E+02       rivcd                 1.0000000000E+00      -5.0000000000E+01     1          
 salt_ca000             log                    factor                1.0400000000E+02      1.0400000000E+00      1.0400000000E+04       salt_ca0              1.0000000000E+00      0.0000000000E+00      1          
 salt_ca001             log                    factor                1.0400000000E+02      1.0400000000E+00      1.0400000000E+04       salt_ca0              1.0000000000E+00      0.0000000000E+00      1          
 salt_ca002             log                    factor                1.0400000000E+02      1.0400000000E+00      1.0400000000E+04       salt_ca0              1.0000000000E+00      0.0000000000E+00      1          
 salt_ca003             log                    factor                1.0400000000E+02      1.0400000000E+00      1.0400000000E+04       salt_ca0              1.0000000000E+00      0.0000000000E+00      1          
 salt_ca004             log                    factor                1.0400000000E+02      1.0400000000E+00      1.0400000000E+04       salt_ca0              1.0000000000E+00      0.0000000000E+00      1          
 salt_ca005             log                    factor                1.0400000000E+02      1.0400000000E+00      1.0400000000E+04       salt_ca0              1.0000000000E+00      0.0000000000E+00      1          
 salt_ca006             log                    factor                1.0400000000E+02      1.0400000000E+00      1.0400000000E+04       salt_ca0              1.0000000000E+00      0.0000000000E+00      1          
 salt_ca007             log                    factor                1.0400000000E+02      1.0400000000E+00      1.0400000000E+04       salt_ca0              1.0000000000E+00      0.0000000000E+00      1          
 salt_ca008             log                    factor                1.0400000000E+02      1.0400000000E+00      1.0400000000E+04       salt_ca0              1.0000000000E+00      0.0000000000E+00      1          
 salt_ca009             log                    factor                1.0400000000E+02      1.0400000000E+00      1.0400000000E+04       salt_ca0              1.0000000000E+00      0.0000000000E+00      1          
 salt_ca010             log                    factor                1.0400000000E+02      1.0400000000E+00      1.0400000000E+04       salt_ca0              1.0000000000E+00      0.0000000000E+00      1          
 salt_ca011             log                    factor                1.0400000000E+02      1.0400000000E+00      1.0400000000E+04       salt_ca0              1.0000000000E+00      0.0000000000E+00      1          
 salt_ca012             log                    factor                1.0400000000E+02      1.0400000000E+00      1.0400000000E+04       salt_ca0              1.0000000000E+00      0.0000000000E+00      1          
 salt_ca013             log                    factor                1.0400000000E+02      1.0400000000E+00      1.0400000000E+04       salt_ca0              1.0000000000E+00      0.0000000000E+00      1          
 salt_ca014             log                    factor                1.0400000000E+02      1.0400000000E+00      1.0400000000E+04       salt_ca0              1.0000000000E+00      0.0000000000E+00      1          
 salt_ca015             log                    factor                1.0400000000E+02      1.0400000000E+00      1.0400000000E+04       salt_ca0              1.0000000000E+00      0.0000000000E+00      1          
 salt_ca016             log                    factor                1.0400000000E+02      1.0400000000E+00      1.0400000000E+04       salt_ca0              1.0000000000E+00      0.0000000000E+00      1          
 salt_ca017             log                    factor                1.0400000000E+02      1.0400000000E+00      1.0400000000E+04       salt_ca0              1.0000000000E+00      0.0000000000E+00      1          
 salt_ca018             log                    factor                1.0400000000E+02      1.0400000000E+00      1.0400000000E+04       salt_ca0              1.0000000000E+00      0.0000000000E+00      1          
 salt_ca019             log                    factor                1.0400000000E+02      1.0400000000E+00      1.0400000000E+04       salt_ca0              1.0000000000E+00      0.0000000000E+00      1          
 salt_ca020             log                    factor                1.0400000000E+02      1.0400000000E+00      1.0400000000E+04       salt_ca0              1.0000000000E+00      0.0000000000E+00      1          
 salt_ca021             log                    factor                1.0400000000E+02      1.0400000000E+00      1.0400000000E+04       salt_ca0              1.0000000000E+00      0.0000000000E+00      1          
 salt_ca022             log                    factor                1.0400000000E+02      1.0400000000E+00      1.0400000000E+04       salt_ca0              1.0000000000E+00      0.0000000000E+00      1          
 salt_ca023             log                    factor                1.0400000000E+02      1.0400000000E+00      1.0400000000E+04       salt_ca0              1.0000000000E+00      0.0000000000E+00      1          
 salt_ca024             log                    factor                1.0400000000E+02      1.0400000000E+00      1.0400000000E+04       salt_ca0              1.0000000000E+00      0.0000000000E+00      1          
 salt_ca025             log                    factor                1.0400000000E+02      1.0400000000E+00      1.0400000000E+04       salt_ca0              1.0000000000E+00      0.0000000000E+00      1          
 salt_ca026             log                    factor                1.0400000000E+02      1.0400000000E+00      1.0400000000E+04       salt_ca0              1.0000000000E+00      0.0000000000E+00      1          
 salt_ca027             log                    factor                1.0400000000E+02      1.0400000000E+00      1.0400000000E+04       salt_ca0              1.0000000000E+00      0.0000000000E+00      1          
 salt_ca028             log                    factor                1.0400000000E+02      1.0400000000E+00      1.0400000000E+04       salt_ca0              1.0000000000E+00      0.0000000000E+00      1          
 salt_ca029             log                    factor                1.0400000000E+02      1.0400000000E+00      1.0400000000E+04       salt_ca0              1.0000000000E+00      0.0000000000E+00      1          
 salt_ca030             log                    factor                1.0400000000E+02      1.0400000000E+00      1.0400000000E+04       salt_ca0              1.0000000000E+00      0.0000000000E+00      1          
 salt_ca031             log                    factor                1.0400000000E+02      1.0400000000E+00      1.0400000000E+04       salt_ca0              1.0000000000E+00      0.0000000000E+00      1          
 salt_ca032             log                    factor                1.0400000000E+02      1.0400000000E+00      1.0400000000E+04       salt_ca0              1.0000000000E+00      0.0000000000E+00      1          
 salt_ca033             log                    factor                1.0400000000E+02      1.0400000000E+00      1.0400000000E+04       salt_ca0              1.0000000000E+00      0.0000000000E+00      1          
 salt_ca034             log                    factor                1.0400000000E+02      1.0400000000E+00      1.0400000000E+04       salt_ca0              1.0000000000E+00      0.0000000000E+00      1          
 salt_ca035             log                    factor                1.0400000000E+02      1.0400000000E+00      1.0400000000E+04       salt_ca0              1.0000000000E+00      0.0000000000E+00      1          
 salt_ca036             log                    factor                1.0400000000E+02      1.0400000000E+00      1.0400000000E+04       salt_ca0              1.0000000000E+00      0.0000000000E+00      1          
 salt_cl000             log                    factor                1.6000000000E+02      1.6000000000E+00      1.6000000000E+04       salt_cl0              1.0000000000E+00      0.0000000000E+00      1          
 salt_cl001             log                    factor                1.6000000000E+02      1.6000000000E+00      1.6000000000E+04       salt_cl0              1.0000000000E+00      0.0000000000E+00      1          
 salt_cl002             log                    factor                1.6000000000E+02      1.6000000000E+00      1.6000000000E+04       salt_cl0              1.0000000000E+00      0.0000000000E+00      1          
 salt_cl003             log                    factor                1.6000000000E+02      1.6000000000E+00      1.6000000000E+04       salt_cl0              1.0000000000E+00      0.0000000000E+00      1          
 salt_cl004             log                    factor                1.6000000000E+02      1.6000000000E+00      1.6000000000E+04       salt_cl0              1.0000000000E+00      0.0000000000E+00      1          
 salt_cl005             log                    factor                1.6000000000E+02      1.6000000000E+00      1.6000000000E+04       salt_cl0              1.0000000000E+00      0.0000000000E+00      1          
 salt_cl006             log                    factor                1.6000000000E+02      1.6000000000E+00      1.6000000000E+04       salt_cl0              1.0000000000E+00      0.0000000000E+00      1          
 salt_cl007             log                    factor                1.6000000000E+02      1.6000000000E+00      1.6000000000E+04       salt_cl0              1.0000000000E+00      0.0000000000E+00      1          
 salt_cl008             log                    factor                1.6000000000E+02      1.6000000000E+00      1.6000000000E+04       salt_cl0              1.0000000000E+00      0.0000000000E+00      1          
 salt_cl009             log                    factor                1.6000000000E+02      1.6000000000E+00      1.6000000000E+04       salt_cl0              1.0000000000E+00      0.0000000000E+00      1          
 salt_cl010             log                    factor                1.6000000000E+02      1.6000000000E+00      1.6000000000E+04       salt_cl0              1.0000000000E+00      0.0000000000E+00      1          
 salt_cl011             log                    factor                1.6000000000E+02      1.6000000000E+00      1.6000000000E+04       salt_cl0              1.0000000000E+00      0.0000000000E+00      1          
 salt_cl012             log                    factor                1.6000000000E+02      1.6000000000E+00      1.6000000000E+04       salt_cl0              1.0000000000E+00      0.0000000000E+00      1          
 salt_cl013             log                    factor                1.6000000000E+02      1.6000000000E+00      1.6000000000E+04       salt_cl0              1.0000000000E+00      0.0000000000E+00      1          
 salt_cl014             log                    factor                1.6000000000E+02      1.6000000000E+00      1.6000000000E+04       salt_cl0              1.0000000000E+00      0.0000000000E+00      1          
 salt_cl015             log                    factor                1.6000000000E+02      1.6000000000E+00      1.6000000000E+04       salt_cl0              1.0000000000E+00      0.0000000000E+00      1          
 salt_cl016             log                    factor                1.6000000000E+02      1.6000000000E+00      1.6000000000E+04       salt_cl0              1.0000000000E+00      0.0000000000E+00      1          
 salt_cl017             log                    factor                1.6000000000E+02      1.6000000000E+00      1.6000000000E+04       salt_cl0              1.0000000000E+00      0.0000000000E+00      1          
 salt_cl018             log                    factor                1.6000000000E+02      1.6000000000E+00      1.6000000000E+04       salt_cl0              1.0000000000E+00      0.0000000000E+00      1          
 salt_cl019             log                    factor                1.6000000000E+02      1.6000000000E+00      1.6000000000E+04       salt_cl0              1.0000000000E+00      0.0000000000E+00      1          
 salt_cl020             log                    factor                1.6000000000E+02      1.6000000000E+00      1.6000000000E+04       salt_cl0              1.0000000000E+00      0.0000000000E+00      1          
 salt_cl021             log                    factor                1.6000000000E+02      1.6000000000E+00      1.6000000000E+04       salt_cl0              1.0000000000E+00      0.0000000000E+00      1          
 salt_cl022             log                    factor                1.6000000000E+02      1.6000000000E+00      1.6000000000E+04       salt_cl0              1.0000000000E+00      0.0000000000E+00      1          
 salt_cl023             log                    factor                1.6000000000E+02      1.6000000000E+00      1.6000000000E+04       salt_cl0              1.0000000000E+00      0.0000000000E+00      1          
 salt_cl024             log                    factor                1.6000000000E+02      1.6000000000E+00      1.6000000000E+04       salt_cl0              1.0000000000E+00      0.0000000000E+00      1          
 salt_cl025             log                    factor                1.6000000000E+02      1.6000000000E+00      1.6000000000E+04       salt_cl0              1.0000000000E+00      0.0000000000E+00      1          
 salt_cl026             log                    factor                1.6000000000E+02      1.6000000000E+00      1.6000000000E+04       salt_cl0              1.0000000000E+00      0.0000000000E+00      1          
 salt_cl027             log                    factor                1.6000000000E+02      1.6000000000E+00      1.6000000000E+04       salt_cl0              1.0000000000E+00      0.0000000000E+00      1          
 salt_cl028             log                    factor                1.6000000000E+02      1.6000000000E+00      1.6000000000E+04       salt_cl0              1.0000000000E+00      0.0000000000E+00      1          
 salt_cl029             log                    factor                1.6000000000E+02      1.6000000000E+00      1.6000000000E+04       salt_cl0              1.0000000000E+00      0.0000000000E+00      1          
 salt_cl030             log                    factor                1.6000000000E+02      1.6000000000E+00      1.6000000000E+04       salt_cl0              1.0000000000E+00      0.0000000000E+00      1          
 salt_cl031             log                    factor                1.6000000000E+02      1.6000000000E+00      1.6000000000E+04       salt_cl0              1.0000000000E+00      0.0000000000E+00      1          
 salt_cl032             log                    factor                1.6000000000E+02      1.6000000000E+00      1.6000000000E+04       salt_cl0              1.0000000000E+00      0.0000000000E+00      1          
 salt_cl033             log                    factor                1.6000000000E+02      1.6000000000E+00      1.6000000000E+04       salt_cl0              1.0000000000E+00      0.0000000000E+00      1          
 salt_cl034             log                    factor                1.6000000000E+02      1.6000000000E+00      1.6000000000E+04       salt_cl0              1.0000000000E+00      0.0000000000E+00      1          
 salt_cl035             log                    factor                1.6000000000E+02      1.6000000000E+00      1.6000000000E+04       salt_cl0              1.0000000000E+00      0.0000000000E+00      1          
 salt_cl036             log                    factor                1.6000000000E+02      1.6000000000E+00      1.6000000000E+04       salt_cl0              1.0000000000E+00      0.0000000000E+00      1          
 salt_co3000            log                    factor                4.0000000000E+00      4.0000000000E-02      4.0000000000E+02       salt_co30             1.0000000000E+00      0.0000000000E+00      1          
 salt_co3001            log                    factor                4.0000000000E+00      4.0000000000E-02      4.0000000000E+02       salt_co30             1.0000000000E+00      0.0000000000E+00      1          
 salt_co3002            log                    factor                4.0000000000E+00      4.0000000000E-02      4.0000000000E+02       salt_co30             1.0000000000E+00      0.0000000000E+00      1          
 salt_co3003            log                    factor                4.0000000000E+00      4.0000000000E-02      4.0000000000E+02       salt_co30             1.0000000000E+00      0.0000000000E+00      1          
 salt_co3004            log                    factor                4.0000000000E+00      4.0000000000E-02      4.0000000000E+02       salt_co30             1.0000000000E+00      0.0000000000E+00      1          
 salt_co3005            log                    factor                4.0000000000E+00      4.0000000000E-02      4.0000000000E+02       salt_co30             1.0000000000E+00      0.0000000000E+00      1          
 salt_co3006            log                    factor                4.0000000000E+00      4.0000000000E-02      4.0000000000E+02       salt_co30             1.0000000000E+00      0.0000000000E+00      1          
 salt_co3007            log                    factor                4.0000000000E+00      4.0000000000E-02      4.0000000000E+02       salt_co30             1.0000000000E+00      0.0000000000E+00      1          
 salt_co3008            log                    factor                4.0000000000E+00      4.0000000000E-02      4.0000000000E+02       salt_co30             1.0000000000E+00      0.0000000000E+00      1          
 salt_co3009            log                    factor                4.0000000000E+00      4.0000000000E-02      4.0000000000E+02       salt_co30             1.0000000000E+00      0.0000000000E+00      1          
 salt_co3010            log                    factor                4.0000000000E+00      4.0000000000E-02      4.0000000000E+02       salt_co30             1.0000000000E+00      0.0000000000E+00      1          
 salt_co3011            log                    factor                4.0000000000E+00      4.0000000000E-02      4.0000000000E+02       salt_co30             1.0000000000E+00      0.0000000000E+00      1          